version 3
run Wireless01-0-20241220-14:07:59-18564
attr configname Wireless01
attr datetime 20241220-14:07:59
attr datetimef 20241220-140759
attr experiment Wireless01
attr inifile omnetpp.ini
attr iterationvars ""
attr iterationvarsd ""
attr iterationvarsf ""
attr measurement ""
attr network Smarthome
attr processid 18564
attr repetition 0
attr replication #0
attr resultdir results
attr runnumber 0
attr seedset 0
config image-path ../../inet4.5/images
config description "Setting up two-way communication between hosts and smart devices"
config network Smarthome
config sim-time-limit 200s
config *.wlan[].typename Ieee80211Interface
config *.wlan[].radio.typename Ieee80211ScalarRadio
config *.wlan[].mac.typename Ieee80211Mac
config *.wlan[].agent.typename Ieee80211AgentSta
config *.wlan[].mgmt.typename Ieee80211MgmtSta
config *.accessPoint.wlan[].mgmt.typename Ieee80211MgmtAp
config *.accessPoint.wlan[].agent.typename ""
config *.accessPoint.wlan[].mac.address "\"00:00:00:00:00:01\""
config *.accessPoint.wlan[].mac.queue.typename EtherQosQueue
config *.accessPoint.wlan[].mac.queue.dataQueue.typename DropTailQueue
config *.accessPoint.wlan[].mac.queue.dataQueue.packetCapacity 50
config *.wlan[].radio.transmitter.power 100mW
config *.wlan[].radio.receiver.sensitivity -85dBm
config *.wlan[].radio.receiver.snirThreshold 4dB
config **.mobility.initialX "uniform(0m, 50m)"
config **.mobility.initialY "uniform(0m, 50m)"
config **.mobility.initialZ 1.5m
config *.smartphone.wlan[].mac.address "\"00:00:00:00:00:02\""
config *.lamp.wlan[].mac.address "\"00:00:00:00:00:03\""
config *.thermostat.wlan[].mac.address "\"00:00:00:00:00:04\""
config *.smartTV.wlan[].mac.address "\"00:00:00:00:00:05\""
config *.securityCamera.wlan[].mac.address "\"00:00:00:00:00:06\""
config **.smartphone.numApps 2
config **.smartphone.app[0].typename UdpBasicApp
config **.smartphone.app[0].destAddresses "\"smartLight\""
config **.smartphone.app[0].destPort 6002
config **.smartphone.app[0].messageLength 1000B
config **.smartphone.app[0].sendInterval exponential(1s)
config **.smartphone.app[0].packetName "\"ControlCommand_Smartphone\""
config **.smartphone.app[1].typename UdpSink
config **.smartphone.app[1].localPort 5002
config **.lamp.numApps 2
config **.lamp.app[0].typename UdpBasicApp
config **.lamp.app[0].destAddresses "\"smartphone smartTV\""
config **.lamp.app[0].destPort 5002
config **.lamp.app[0].messageLength 500B
config **.lamp.app[0].sendInterval exponential(5s)
config **.lamp.app[0].packetName "\"LightStatus\""
config **.lamp.app[1].typename UdpSink
config **.lamp.app[1].localPort 6003
config **.thermostat.numApps 2
config **.thermostat.app[0].typename UdpBasicApp
config **.thermostat.app[0].destAddresses "\"smartphone smartTV\""
config **.thermostat.app[0].destPort 5002
config **.thermostat.app[0].messageLength 500B
config **.thermostat.app[0].sendInterval "uniform(0.5s, 2s)"
config **.thermostat.app[0].packetName "\"TemperatureData\""
config **.thermostat.app[1].typename UdpSink
config **.thermostat.app[1].localPort 6004
config **.securityCamera.numApps 2
config **.securityCamera.app[0].typename UdpBasicApp
config **.securityCamera.app[0].destAddresses "\"smartphone smartTV\""
config **.securityCamera.app[0].destPort 6004
config **.securityCamera.app[0].messageLength 500B
config **.securityCamera.app[0].sendInterval exponential(5s)
config **.securityCamera.app[0].packetName "\"CameraFeed\""
config **.securityCamera.app[1].typename UdpSink
config **.securityCamera.app[1].localPort 5003
config **.smartTV.numApps 2
config **.smartTV.app[0].typename UdpBasicApp
config **.smartTV.app[0].destAddresses "\"lamp\""
config **.smartTV.app[0].destPort 6003
config **.smartTV.app[0].messageLength 100B
config **.smartTV.app[0].sendInterval "uniform(2s, 5s)"
config **.smartTV.app[0].packetName "\"ControlCommand_SmartTV\""
config **.smartTV.app[1].typename UdpSink
config **.smartTV.app[1].localPort 5002
config *.**.**.bitrate 2Mbps
config *.visualizer.*.interfaceTableVisualizer[0].displayInterfaceTables true
config *.visualizer.mediumVisualizer.displaySignals true
config *.visualizer.physicalLinkVisualizer.displayLinks true
config *.visualizer.physicalLinkVisualizer.packetFilter "\"TemperatureData* or LightStatus* or CameraFeed* or ControlCommand_*\""
config *.visualizer.networkRouteVisualizer.displayRoutes true
config *.visualizer.dataLinkVisualizer.displayLinks true
config *.visualizer.*LinkVisualizer.lineShift 0
config *.visualizer.networkRouteVisualizer.lineShift 0
config *.visualizer.networkRouteVisualizer.packetFilter "\"TemperatureData* or LightStatus* or CameraFeed* or ControlCommand_*\""
config *.visualizer2.*.infoVisualizer.displayInfos true
config *.visualizer2.*.infoVisualizer.modules "\"*.**.udp\""
config *.visualizer2.*.infoVisualizer.format "\"%t\""
config .visualizer..interfaceTableVisualizer.displayInterfaceTables true
config .visualizer..mobilityVisualizer.displayVelocities true
config .visualizer..mobilityVisualizer.displayOrientations true
config *.visualizer.packetVisualizer.displayPackets true
config *.throughputRecorder.className "\"ThroughputRecorder\""
config *.throughputRecorder.packetFilter "\"*\""
config *.throughputRecorder.resultCollectionPeriod 1s
config *.latencyRecorder.className "\"LatencyRecorder\""
config *.latencyRecorder.packetFilter "\"TemperatureData* or LightStatus* or CameraFeed* or ControlCommand_*\""
config *.signalRangeRecorder.className "\"SignalStrengthRecorder\""
config *.signalRangeRecorder.radioFilter "\"*\""
config *.signalRangeRecorder.resultCollectionPeriod 1s
config *.packetLossRecorder.className "\"PacketLossRecorder\""
config *.packetLossRecorder.packetFilter "\"*\""
config *.packetLossRecorder.resultCollectionPeriod 1s
config *.**.debug true

vector 0 Smarthome.accessPoint.wlan[0].mac.dcf.channelAccess.pendingQueue queueLength:vector ETV
attr autoWarmupFilter false
attr interpolationmode sample-hold
attr recordingmode vector
attr source "warmup(atomic(constant0(packetPushEnded) + count(packetPushStarted) - count(packetPulled) - count(packetRemoved) - count(packetDropped)))"
attr title "queue length"
attr unit pk
vector 1 Smarthome.accessPoint.wlan[0].mac.dcf.channelAccess.pendingQueue queueBitLength:vector ETV
attr autoWarmupFilter false
attr interpolationmode sample-hold
attr recordingmode vector
attr source "warmup(atomic(constant0(packetPushEnded) + sum(packetLength(packetPushStarted)) - sum(packetLength(packetPulled)) - sum(packetLength(packetRemoved)) - sum(packetLength(packetDropped))))"
attr title "queue bit length"
attr unit b
vector 2 Smarthome.accessPoint.wlan[0].mac.dcf.channelAccess.pendingQueue queueingTime:vector ETV
attr interpolationmode none
attr recordingmode vector
attr source queueingTime(packetPulled)
attr title "queueing times"
attr unit s
vector 3 Smarthome.accessPoint.wlan[0].mac.dcf.channelAccess.pendingQueue incomingPacketLengths:vector ETV
attr interpolationmode none
attr recordingmode vector
attr source packetLength(packetPushStarted)
attr title "incoming packet lengths"
attr unit b
vector 4 Smarthome.accessPoint.wlan[0].mac.dcf.channelAccess.pendingQueue incomingDataRate:vector ETV
attr interpolationmode linear
attr recordingmode vector
attr source throughput(packetPushStarted)
attr title "incoming datarate"
attr unit bps
vector 5 Smarthome.accessPoint.wlan[0].mac.dcf.channelAccess.pendingQueue outgoingPacketLengths:vector ETV
attr interpolationmode none
attr recordingmode vector
attr source packetLength(packetPulled)
attr title "outgoing packet lengths"
attr unit b
vector 6 Smarthome.accessPoint.wlan[0].mac.dcf.channelAccess.pendingQueue outgoingDataRate:vector ETV
attr interpolationmode linear
attr recordingmode vector
attr source throughput(packetPulled)
attr title "outgoing datarate"
attr unit bps
vector 7 Smarthome.accessPoint.wlan[0].mac.dcf.channelAccess.pendingQueue droppedPacketLengthsQueueOverflow:vector ETV
attr interpolationmode none
attr recordingmode vector
attr source packetLength(packetDropReasonIsQueueOverflow(packetDropped))
attr title "dropped packet lengths: queue overflow"
attr unit b
vector 8 Smarthome.accessPoint.wlan[0].mac.dcf.channelAccess.pendingQueue flowQueueingTime:vector ETV
attr interpolationmode none
attr recordingmode vector
attr source queueingTime(demuxFlow(packetPulled))
attr title "flow queueing times"
attr unit s
vector 9 Smarthome.accessPoint.wlan[0].mac.dcf.channelAccess.pendingQueue flowIncomingDataRate:vector ETV
attr interpolationmode linear
attr recordingmode vector
attr source throughput(flowPacketLength(demuxFlow(packetPushStarted)))
attr title "flow specific incoming data rate"
attr unit bps
vector 10 Smarthome.accessPoint.wlan[0].mac.dcf.channelAccess.pendingQueue flowOutgoingDataRate:vector ETV
attr interpolationmode linear
attr recordingmode vector
attr source throughput(flowPacketLength(demuxFlow(packetPulled)))
attr title "flow specific outgoing data rate"
attr unit bps
vector 11 Smarthome.accessPoint.wlan[0].mac.dcf.channelAccess.inProgressFrames queueingTime:vector ETV
attr interpolationmode none
attr recordingmode vector
attr source queueingTime(packetDequeued)
attr title "queueing times"
vector 12 Smarthome.accessPoint.wlan[0].mac.dcf.channelAccess.inProgressFrames queueLength:vector ETV
attr autoWarmupFilter false
attr interpolationmode sample-hold
attr recordingmode vector
attr source "warmup(count(packetEnqueued) - count(packetDequeued))"
attr title "queue length"
vector 13 Smarthome.accessPoint.wlan[0].mac.dcf.channelAccess.contention backoffPeriodGenerated:vector ETV
attr interpolationmode none
attr recordingmode vector
attr title "backoff periods"
vector 14 Smarthome.accessPoint.wlan[0].mac.dcf.channelAccess.contention backoffActive:vector ETV
attr autoWarmupFilter false
attr interpolationmode sample-hold
attr recordingmode vector
attr source warmup(count(backoffStarted)-count(backoffStopped))
attr title "backoff active"
vector 15 Smarthome.accessPoint.wlan[0].mac.dcf.channelAccess.contention stateChanged:vector ETV
attr enum IDLE,DEFER,IFS_AND_BACKOFF
attr interpolationmode none
attr recordingmode vector
attr title "contention state changed"
attr type enum
vector 16 Smarthome.accessPoint.wlan[0].mac.dcf.recipientMacDataService packetDropDuplicateDetected:vector(packetBytes) ETV
attr interpolationmode none
attr recordingmode vector(packetBytes)
attr source packetDropReasonIsDuplicateDetected(packetDropped)
attr title "packet drops: duplicate detected, packetBytes"
vector 17 Smarthome.accessPoint.wlan[0].mac.dcf.recoveryProcedure contentionWindowChanged:vector ETV
attr interpolationmode sample-hold
attr recordingmode vector
attr title "contention window"
vector 18 Smarthome.accessPoint.wlan[0].mac.dcf packetSentToPeer:vector(packetBytes) ETV
attr interpolationmode none
attr recordingmode vector(packetBytes)
attr title "packets sent, packetBytes"
vector 19 Smarthome.accessPoint.wlan[0].mac.dcf packetSentToPeerUnicast:vector(packetBytes) ETV
attr interpolationmode none
attr recordingmode vector(packetBytes)
attr source ieee80211Unicast(packetSentToPeer)
attr title "packets sent: unicast, packetBytes"
vector 20 Smarthome.accessPoint.wlan[0].mac.dcf packetSentToPeerMulticast:vector(packetBytes) ETV
attr interpolationmode none
attr recordingmode vector(packetBytes)
attr source ieee80211Multicast(packetSentToPeer)
attr title "packets sent: multicast, packetBytes"
vector 21 Smarthome.accessPoint.wlan[0].mac.dcf packetSentToPeerBroadcast:vector(packetBytes) ETV
attr interpolationmode none
attr recordingmode vector(packetBytes)
attr source ieee80211Broadcast(packetSentToPeer)
attr title "packets sent: broadcast , packetBytes"
vector 22 Smarthome.accessPoint.wlan[0].mac.dcf packetSentToPeerWithRetry:vector(packetBytes) ETV
attr interpolationmode none
attr recordingmode vector(packetBytes)
attr source ieee80211Retry(packetSentToPeer)
attr title "packets sent: with retry, packetBytes"
vector 23 Smarthome.accessPoint.wlan[0].mac.dcf packetSentToPeerWithoutRetry:vector(packetBytes) ETV
attr interpolationmode none
attr recordingmode vector(packetBytes)
attr source ieee80211NotRetry(packetSentToPeer)
attr title "packets sent: without retry, packetBytes"
vector 24 Smarthome.accessPoint.wlan[0].mac.dcf packetReceivedFromPeer:vector(packetBytes) ETV
attr interpolationmode none
attr recordingmode vector(packetBytes)
attr title "packets received, packetBytes"
vector 25 Smarthome.accessPoint.wlan[0].mac.dcf packetReceivedFromPeerUnicast:vector(packetBytes) ETV
attr interpolationmode none
attr recordingmode vector(packetBytes)
attr source ieee80211Unicast(packetReceivedFromPeer)
attr title "packets received: unicast, packetBytes"
vector 26 Smarthome.accessPoint.wlan[0].mac.dcf packetReceivedFromPeerMulticast:vector(packetBytes) ETV
attr interpolationmode none
attr recordingmode vector(packetBytes)
attr source ieee80211Multicast(packetReceivedFromPeer)
attr title "packets received: multicast, packetBytes"
vector 27 Smarthome.accessPoint.wlan[0].mac.dcf packetReceivedFromPeerBroadcast:vector(packetBytes) ETV
attr interpolationmode none
attr recordingmode vector(packetBytes)
attr source ieee80211Broadcast(packetReceivedFromPeer)
attr title "packets received: broadcast, packetBytes"
vector 28 Smarthome.accessPoint.wlan[0].mac.dcf packetReceivedFromPeerWithRetry:vector(packetBytes) ETV
attr interpolationmode none
attr recordingmode vector(packetBytes)
attr source ieee80211Retry(packetReceivedFromPeer)
attr title "packets received: with retry, packetBytes"
vector 29 Smarthome.accessPoint.wlan[0].mac.dcf packetReceivedFromPeerWithoutRetry:vector(packetBytes) ETV
attr interpolationmode none
attr recordingmode vector(packetBytes)
attr source ieee80211NotRetry(packetReceivedFromPeer)
attr title "packets received: without retry, packetBytes"
vector 30 Smarthome.accessPoint.wlan[0].mac.dcf packetDrop:vector(packetBytes) ETV
attr interpolationmode none
attr recordingmode vector(packetBytes)
attr source packetDropped
attr title "packet drops, packetBytes"
vector 31 Smarthome.accessPoint.wlan[0].mac.dcf packetDropNotAddressedToUs:vector(packetBytes) ETV
attr interpolationmode none
attr recordingmode vector(packetBytes)
attr source packetDropReasonIsNotAddressedToUs(packetDropped)
attr title "packet drops: not addressed to us, packetBytes"
vector 32 Smarthome.accessPoint.wlan[0].mac.dcf packetDropQueueOverflow:vector(packetBytes) ETV
attr interpolationmode none
attr recordingmode vector(packetBytes)
attr source packetDropReasonIsQueueOverflow(packetDropped)
attr title "packet drops: queue overflow, packetBytes"
vector 33 Smarthome.accessPoint.wlan[0].mac.dcf packetDropRetryLimitReached:vector(packetBytes) ETV
attr interpolationmode none
attr recordingmode vector(packetBytes)
attr source packetDropReasonIsRetryLimitReached(packetDropped)
attr title "packet drops: retry limit reached, packetBytes"
vector 34 Smarthome.accessPoint.wlan[0].mac.dcf frameSequenceActive:vector ETV
attr autoWarmupFilter false
attr interpolationmode sample-hold
attr recordingmode vector
attr source warmup(count(frameSequenceStarted)-count(frameSequenceFinished))
attr title "frame sequence active"
vector 35 Smarthome.accessPoint.wlan[0].mac.dcf datarateSelected:vector ETV
attr interpolationmode none
attr recordingmode vector
attr title "datarates selected"
vector 36 Smarthome.accessPoint.wlan[0].mac.rx nav:vector ETV
attr interpolationmode linear
attr recordingmode vector
attr source navChanged
attr title "network allocation vector"
vector 37 Smarthome.accessPoint.wlan[0].mac packetSentToUpper:vector(packetBytes) ETV
attr interpolationmode none
attr recordingmode vector(packetBytes)
attr title "packets sent to upper layer, packetBytes"
vector 38 Smarthome.accessPoint.wlan[0].mac packetSentToLower:vector(packetBytes) ETV
attr interpolationmode none
attr recordingmode vector(packetBytes)
attr title "packets sent to lower layer, packetBytes"
vector 39 Smarthome.accessPoint.wlan[0].mac packetReceivedFromUpper:vector(packetBytes) ETV
attr interpolationmode none
attr recordingmode vector(packetBytes)
attr title "packets received from upper layer, packetBytes"
vector 40 Smarthome.accessPoint.wlan[0].mac packetReceivedFromLower:vector(packetBytes) ETV
attr interpolationmode none
attr recordingmode vector(packetBytes)
attr title "packets received from lower layer, packetBytes"
vector 41 Smarthome.accessPoint.wlan[0].mac packetDrop:vector(packetBytes) ETV
attr interpolationmode none
attr recordingmode vector(packetBytes)
attr source packetDropped
attr title "packet drops, packetBytes"
vector 42 Smarthome.accessPoint.wlan[0].mac packetDropIncorrectlyReceived:vector(packetBytes) ETV
attr interpolationmode none
attr recordingmode vector(packetBytes)
attr source packetDropReasonIsIncorrectlyReceived(packetDropped)
attr title "packet drops: incorrectly received, packetBytes"
vector 43 Smarthome.accessPoint.wlan[0].mac packetDropNotAddressedToUs:vector(packetBytes) ETV
attr interpolationmode none
attr recordingmode vector(packetBytes)
attr source packetDropReasonIsNotAddressedToUs(packetDropped)
attr title "packet drops: not addressed to us, packetBytes"
vector 44 Smarthome.accessPoint.wlan[0].mac packetDropQueueOverflow:vector(packetBytes) ETV
attr interpolationmode none
attr recordingmode vector(packetBytes)
attr source packetDropReasonIsQueueOverflow(packetDropped)
attr title "packet drops: queue overflow, packetBytes"
vector 45 Smarthome.accessPoint.wlan[0].mac packetDropRetryLimitReached:vector(packetBytes) ETV
attr interpolationmode none
attr recordingmode vector(packetBytes)
attr source packetDropReasonIsRetryLimitReached(packetDropped)
attr title "packet drops: retry limit reached, packetBytes"
vector 46 Smarthome.accessPoint.wlan[0].mac packetDropDuplicateDetected:vector(packetBytes) ETV
attr interpolationmode none
attr recordingmode vector(packetBytes)
attr source packetDropReasonIsDuplicateDetected(packetDropped)
attr title "packet drops: duplicate detected, packetBytes"
vector 47 Smarthome.accessPoint.wlan[0].mac packetDropOther:vector(packetBytes) ETV
attr interpolationmode none
attr recordingmode vector(packetBytes)
attr source packetDropReasonIsOther(packetDropped)
attr title "packet drops: other, packetBytes"
vector 48 Smarthome.accessPoint.wlan[0].radio radioMode:vector ETV
attr interpolationmode sample-hold
attr recordingmode vector
attr source radioModeChanged
attr title "Radio mode"
vector 49 Smarthome.accessPoint.wlan[0].radio receptionState:vector ETV
attr interpolationmode sample-hold
attr recordingmode vector
attr source receptionStateChanged
attr title "Radio reception state"
vector 50 Smarthome.accessPoint.wlan[0].radio transmissionState:vector ETV
attr interpolationmode sample-hold
attr recordingmode vector
attr source transmissionStateChanged
attr title "Radio transmission state"
vector 51 Smarthome.accessPoint.wlan[0].radio radioChannel:vector ETV
attr interpolationmode sample-hold
attr recordingmode vector
attr source radioChannelChanged
attr title "Radio channel"
vector 52 Smarthome.accessPoint.wlan[0] packetDropInterfaceDown:vector(packetBytes) ETV
attr interpolationmode none
attr recordingmode vector(packetBytes)
attr source packetDropReasonIsInterfaceDown(packetDropped)
attr title "packet drops: interface down, packetBytes"
vector 53 Smarthome.accessPoint.wlan[0] packetDropNoCarrier:vector(packetBytes) ETV
attr interpolationmode none
attr recordingmode vector(packetBytes)
attr source packetDropReasonIsNoCarrier(packetDropped)
attr title "packet drops: no carrier, packetBytes"
vector 54 Smarthome.smartphone.lo[0].lo rcvdPkFromHl:vector(packetBytes) ETV
attr interpolationmode none
attr recordingmode vector(packetBytes)
attr source packetReceivedFromUpper
attr title "packets received from higher layer, packetBytes"
vector 55 Smarthome.smartphone.lo[0].lo passedUpPk:vector(packetBytes) ETV
attr interpolationmode none
attr recordingmode vector(packetBytes)
attr source packetSentToUpper
attr title "packets passed to higher layer, packetBytes"
vector 56 Smarthome.smartphone.lo[0] packetDropInterfaceDown:vector(packetBytes) ETV
attr interpolationmode none
attr recordingmode vector(packetBytes)
attr source packetDropReasonIsInterfaceDown(packetDropped)
attr title "packet drops: interface down, packetBytes"
vector 57 Smarthome.smartphone.lo[0] packetDropNoCarrier:vector(packetBytes) ETV
attr interpolationmode none
attr recordingmode vector(packetBytes)
attr source packetDropReasonIsNoCarrier(packetDropped)
attr title "packet drops: no carrier, packetBytes"
vector 58 Smarthome.smartphone.wlan[0].agent sentRequest:vector ETV
attr recordingmode vector
attr title "sent requests"
vector 59 Smarthome.smartphone.wlan[0].agent acceptConfirm:vector ETV
attr recordingmode vector
attr title "accepted confirms"
vector 60 Smarthome.smartphone.wlan[0].agent dropConfirm:vector ETV
attr recordingmode vector
attr title "dropped confirms"
vector 61 Smarthome.smartphone.wlan[0].mac.dcf.channelAccess.pendingQueue queueLength:vector ETV
attr autoWarmupFilter false
attr interpolationmode sample-hold
attr recordingmode vector
attr source "warmup(atomic(constant0(packetPushEnded) + count(packetPushStarted) - count(packetPulled) - count(packetRemoved) - count(packetDropped)))"
attr title "queue length"
attr unit pk
vector 62 Smarthome.smartphone.wlan[0].mac.dcf.channelAccess.pendingQueue queueBitLength:vector ETV
attr autoWarmupFilter false
attr interpolationmode sample-hold
attr recordingmode vector
attr source "warmup(atomic(constant0(packetPushEnded) + sum(packetLength(packetPushStarted)) - sum(packetLength(packetPulled)) - sum(packetLength(packetRemoved)) - sum(packetLength(packetDropped))))"
attr title "queue bit length"
attr unit b
vector 63 Smarthome.smartphone.wlan[0].mac.dcf.channelAccess.pendingQueue queueingTime:vector ETV
attr interpolationmode none
attr recordingmode vector
attr source queueingTime(packetPulled)
attr title "queueing times"
attr unit s
vector 64 Smarthome.smartphone.wlan[0].mac.dcf.channelAccess.pendingQueue incomingPacketLengths:vector ETV
attr interpolationmode none
attr recordingmode vector
attr source packetLength(packetPushStarted)
attr title "incoming packet lengths"
attr unit b
vector 65 Smarthome.smartphone.wlan[0].mac.dcf.channelAccess.pendingQueue incomingDataRate:vector ETV
attr interpolationmode linear
attr recordingmode vector
attr source throughput(packetPushStarted)
attr title "incoming datarate"
attr unit bps
vector 66 Smarthome.smartphone.wlan[0].mac.dcf.channelAccess.pendingQueue outgoingPacketLengths:vector ETV
attr interpolationmode none
attr recordingmode vector
attr source packetLength(packetPulled)
attr title "outgoing packet lengths"
attr unit b
vector 67 Smarthome.smartphone.wlan[0].mac.dcf.channelAccess.pendingQueue outgoingDataRate:vector ETV
attr interpolationmode linear
attr recordingmode vector
attr source throughput(packetPulled)
attr title "outgoing datarate"
attr unit bps
vector 68 Smarthome.smartphone.wlan[0].mac.dcf.channelAccess.pendingQueue droppedPacketLengthsQueueOverflow:vector ETV
attr interpolationmode none
attr recordingmode vector
attr source packetLength(packetDropReasonIsQueueOverflow(packetDropped))
attr title "dropped packet lengths: queue overflow"
attr unit b
vector 69 Smarthome.smartphone.wlan[0].mac.dcf.channelAccess.pendingQueue flowQueueingTime:vector ETV
attr interpolationmode none
attr recordingmode vector
attr source queueingTime(demuxFlow(packetPulled))
attr title "flow queueing times"
attr unit s
vector 70 Smarthome.smartphone.wlan[0].mac.dcf.channelAccess.pendingQueue flowIncomingDataRate:vector ETV
attr interpolationmode linear
attr recordingmode vector
attr source throughput(flowPacketLength(demuxFlow(packetPushStarted)))
attr title "flow specific incoming data rate"
attr unit bps
vector 71 Smarthome.smartphone.wlan[0].mac.dcf.channelAccess.pendingQueue flowOutgoingDataRate:vector ETV
attr interpolationmode linear
attr recordingmode vector
attr source throughput(flowPacketLength(demuxFlow(packetPulled)))
attr title "flow specific outgoing data rate"
attr unit bps
vector 72 Smarthome.smartphone.wlan[0].mac.dcf.channelAccess.inProgressFrames queueingTime:vector ETV
attr interpolationmode none
attr recordingmode vector
attr source queueingTime(packetDequeued)
attr title "queueing times"
vector 73 Smarthome.smartphone.wlan[0].mac.dcf.channelAccess.inProgressFrames queueLength:vector ETV
attr autoWarmupFilter false
attr interpolationmode sample-hold
attr recordingmode vector
attr source "warmup(count(packetEnqueued) - count(packetDequeued))"
attr title "queue length"
vector 74 Smarthome.smartphone.wlan[0].mac.dcf.channelAccess.contention backoffPeriodGenerated:vector ETV
attr interpolationmode none
attr recordingmode vector
attr title "backoff periods"
vector 75 Smarthome.smartphone.wlan[0].mac.dcf.channelAccess.contention backoffActive:vector ETV
attr autoWarmupFilter false
attr interpolationmode sample-hold
attr recordingmode vector
attr source warmup(count(backoffStarted)-count(backoffStopped))
attr title "backoff active"
vector 76 Smarthome.smartphone.wlan[0].mac.dcf.channelAccess.contention stateChanged:vector ETV
attr enum IDLE,DEFER,IFS_AND_BACKOFF
attr interpolationmode none
attr recordingmode vector
attr title "contention state changed"
attr type enum
vector 77 Smarthome.smartphone.wlan[0].mac.dcf.recipientMacDataService packetDropDuplicateDetected:vector(packetBytes) ETV
attr interpolationmode none
attr recordingmode vector(packetBytes)
attr source packetDropReasonIsDuplicateDetected(packetDropped)
attr title "packet drops: duplicate detected, packetBytes"
vector 78 Smarthome.smartphone.wlan[0].mac.dcf.recoveryProcedure contentionWindowChanged:vector ETV
attr interpolationmode sample-hold
attr recordingmode vector
attr title "contention window"
vector 79 Smarthome.smartphone.wlan[0].mac.dcf packetSentToPeer:vector(packetBytes) ETV
attr interpolationmode none
attr recordingmode vector(packetBytes)
attr title "packets sent, packetBytes"
vector 80 Smarthome.smartphone.wlan[0].mac.dcf packetSentToPeerUnicast:vector(packetBytes) ETV
attr interpolationmode none
attr recordingmode vector(packetBytes)
attr source ieee80211Unicast(packetSentToPeer)
attr title "packets sent: unicast, packetBytes"
vector 81 Smarthome.smartphone.wlan[0].mac.dcf packetSentToPeerMulticast:vector(packetBytes) ETV
attr interpolationmode none
attr recordingmode vector(packetBytes)
attr source ieee80211Multicast(packetSentToPeer)
attr title "packets sent: multicast, packetBytes"
vector 82 Smarthome.smartphone.wlan[0].mac.dcf packetSentToPeerBroadcast:vector(packetBytes) ETV
attr interpolationmode none
attr recordingmode vector(packetBytes)
attr source ieee80211Broadcast(packetSentToPeer)
attr title "packets sent: broadcast , packetBytes"
vector 83 Smarthome.smartphone.wlan[0].mac.dcf packetSentToPeerWithRetry:vector(packetBytes) ETV
attr interpolationmode none
attr recordingmode vector(packetBytes)
attr source ieee80211Retry(packetSentToPeer)
attr title "packets sent: with retry, packetBytes"
vector 84 Smarthome.smartphone.wlan[0].mac.dcf packetSentToPeerWithoutRetry:vector(packetBytes) ETV
attr interpolationmode none
attr recordingmode vector(packetBytes)
attr source ieee80211NotRetry(packetSentToPeer)
attr title "packets sent: without retry, packetBytes"
vector 85 Smarthome.smartphone.wlan[0].mac.dcf packetReceivedFromPeer:vector(packetBytes) ETV
attr interpolationmode none
attr recordingmode vector(packetBytes)
attr title "packets received, packetBytes"
vector 86 Smarthome.smartphone.wlan[0].mac.dcf packetReceivedFromPeerUnicast:vector(packetBytes) ETV
attr interpolationmode none
attr recordingmode vector(packetBytes)
attr source ieee80211Unicast(packetReceivedFromPeer)
attr title "packets received: unicast, packetBytes"
vector 87 Smarthome.smartphone.wlan[0].mac.dcf packetReceivedFromPeerMulticast:vector(packetBytes) ETV
attr interpolationmode none
attr recordingmode vector(packetBytes)
attr source ieee80211Multicast(packetReceivedFromPeer)
attr title "packets received: multicast, packetBytes"
vector 88 Smarthome.smartphone.wlan[0].mac.dcf packetReceivedFromPeerBroadcast:vector(packetBytes) ETV
attr interpolationmode none
attr recordingmode vector(packetBytes)
attr source ieee80211Broadcast(packetReceivedFromPeer)
attr title "packets received: broadcast, packetBytes"
vector 89 Smarthome.smartphone.wlan[0].mac.dcf packetReceivedFromPeerWithRetry:vector(packetBytes) ETV
attr interpolationmode none
attr recordingmode vector(packetBytes)
attr source ieee80211Retry(packetReceivedFromPeer)
attr title "packets received: with retry, packetBytes"
vector 90 Smarthome.smartphone.wlan[0].mac.dcf packetReceivedFromPeerWithoutRetry:vector(packetBytes) ETV
attr interpolationmode none
attr recordingmode vector(packetBytes)
attr source ieee80211NotRetry(packetReceivedFromPeer)
attr title "packets received: without retry, packetBytes"
vector 91 Smarthome.smartphone.wlan[0].mac.dcf packetDrop:vector(packetBytes) ETV
attr interpolationmode none
attr recordingmode vector(packetBytes)
attr source packetDropped
attr title "packet drops, packetBytes"
vector 92 Smarthome.smartphone.wlan[0].mac.dcf packetDropNotAddressedToUs:vector(packetBytes) ETV
attr interpolationmode none
attr recordingmode vector(packetBytes)
attr source packetDropReasonIsNotAddressedToUs(packetDropped)
attr title "packet drops: not addressed to us, packetBytes"
vector 93 Smarthome.smartphone.wlan[0].mac.dcf packetDropQueueOverflow:vector(packetBytes) ETV
attr interpolationmode none
attr recordingmode vector(packetBytes)
attr source packetDropReasonIsQueueOverflow(packetDropped)
attr title "packet drops: queue overflow, packetBytes"
vector 94 Smarthome.smartphone.wlan[0].mac.dcf packetDropRetryLimitReached:vector(packetBytes) ETV
attr interpolationmode none
attr recordingmode vector(packetBytes)
attr source packetDropReasonIsRetryLimitReached(packetDropped)
attr title "packet drops: retry limit reached, packetBytes"
vector 95 Smarthome.smartphone.wlan[0].mac.dcf frameSequenceActive:vector ETV
attr autoWarmupFilter false
attr interpolationmode sample-hold
attr recordingmode vector
attr source warmup(count(frameSequenceStarted)-count(frameSequenceFinished))
attr title "frame sequence active"
vector 96 Smarthome.smartphone.wlan[0].mac.dcf datarateSelected:vector ETV
attr interpolationmode none
attr recordingmode vector
attr title "datarates selected"
vector 97 Smarthome.smartphone.wlan[0].mac.rx nav:vector ETV
attr interpolationmode linear
attr recordingmode vector
attr source navChanged
attr title "network allocation vector"
vector 98 Smarthome.smartphone.wlan[0].mac packetSentToUpper:vector(packetBytes) ETV
attr interpolationmode none
attr recordingmode vector(packetBytes)
attr title "packets sent to upper layer, packetBytes"
vector 99 Smarthome.smartphone.wlan[0].mac packetSentToLower:vector(packetBytes) ETV
attr interpolationmode none
attr recordingmode vector(packetBytes)
attr title "packets sent to lower layer, packetBytes"
vector 100 Smarthome.smartphone.wlan[0].mac packetReceivedFromUpper:vector(packetBytes) ETV
attr interpolationmode none
attr recordingmode vector(packetBytes)
attr title "packets received from upper layer, packetBytes"
vector 101 Smarthome.smartphone.wlan[0].mac packetReceivedFromLower:vector(packetBytes) ETV
attr interpolationmode none
attr recordingmode vector(packetBytes)
attr title "packets received from lower layer, packetBytes"
vector 102 Smarthome.smartphone.wlan[0].mac packetDrop:vector(packetBytes) ETV
attr interpolationmode none
attr recordingmode vector(packetBytes)
attr source packetDropped
attr title "packet drops, packetBytes"
vector 103 Smarthome.smartphone.wlan[0].mac packetDropIncorrectlyReceived:vector(packetBytes) ETV
attr interpolationmode none
attr recordingmode vector(packetBytes)
attr source packetDropReasonIsIncorrectlyReceived(packetDropped)
attr title "packet drops: incorrectly received, packetBytes"
vector 104 Smarthome.smartphone.wlan[0].mac packetDropNotAddressedToUs:vector(packetBytes) ETV
attr interpolationmode none
attr recordingmode vector(packetBytes)
attr source packetDropReasonIsNotAddressedToUs(packetDropped)
attr title "packet drops: not addressed to us, packetBytes"
vector 105 Smarthome.smartphone.wlan[0].mac packetDropQueueOverflow:vector(packetBytes) ETV
attr interpolationmode none
attr recordingmode vector(packetBytes)
attr source packetDropReasonIsQueueOverflow(packetDropped)
attr title "packet drops: queue overflow, packetBytes"
vector 106 Smarthome.smartphone.wlan[0].mac packetDropRetryLimitReached:vector(packetBytes) ETV
attr interpolationmode none
attr recordingmode vector(packetBytes)
attr source packetDropReasonIsRetryLimitReached(packetDropped)
attr title "packet drops: retry limit reached, packetBytes"
vector 107 Smarthome.smartphone.wlan[0].mac packetDropDuplicateDetected:vector(packetBytes) ETV
attr interpolationmode none
attr recordingmode vector(packetBytes)
attr source packetDropReasonIsDuplicateDetected(packetDropped)
attr title "packet drops: duplicate detected, packetBytes"
vector 108 Smarthome.smartphone.wlan[0].mac packetDropOther:vector(packetBytes) ETV
attr interpolationmode none
attr recordingmode vector(packetBytes)
attr source packetDropReasonIsOther(packetDropped)
attr title "packet drops: other, packetBytes"
vector 109 Smarthome.smartphone.wlan[0].radio radioMode:vector ETV
attr interpolationmode sample-hold
attr recordingmode vector
attr source radioModeChanged
attr title "Radio mode"
vector 110 Smarthome.smartphone.wlan[0].radio receptionState:vector ETV
attr interpolationmode sample-hold
attr recordingmode vector
attr source receptionStateChanged
attr title "Radio reception state"
vector 111 Smarthome.smartphone.wlan[0].radio transmissionState:vector ETV
attr interpolationmode sample-hold
attr recordingmode vector
attr source transmissionStateChanged
attr title "Radio transmission state"
vector 112 Smarthome.smartphone.wlan[0].radio radioChannel:vector ETV
attr interpolationmode sample-hold
attr recordingmode vector
attr source radioChannelChanged
attr title "Radio channel"
vector 113 Smarthome.smartphone.wlan[0] packetDropInterfaceDown:vector(packetBytes) ETV
attr interpolationmode none
attr recordingmode vector(packetBytes)
attr source packetDropReasonIsInterfaceDown(packetDropped)
attr title "packet drops: interface down, packetBytes"
vector 114 Smarthome.smartphone.wlan[0] packetDropNoCarrier:vector(packetBytes) ETV
attr interpolationmode none
attr recordingmode vector(packetBytes)
attr source packetDropReasonIsNoCarrier(packetDropped)
attr title "packet drops: no carrier, packetBytes"
vector 115 Smarthome.smartphone.ipv4.ip packetDropAddressResolutionFailed:vector(packetBytes) ETV
attr interpolationmode none
attr recordingmode vector(packetBytes)
attr source packetDropReasonIsAddressResolutionFailed(packetDropped)
attr title "packet drop: address resolution failed, packetBytes"
vector 116 Smarthome.smartphone.ipv4.ip packetDropHopLimitReached:vector(packetBytes) ETV
attr interpolationmode none
attr recordingmode vector(packetBytes)
attr source packetDropReasonIsHopLimitReached(packetDropped)
attr title "packet drop: hop limit reached, packetBytes"
vector 117 Smarthome.smartphone.ipv4.ip packetDropForwardingDisabled:vector(packetBytes) ETV
attr interpolationmode none
attr recordingmode vector(packetBytes)
attr source packetDropReasonIsForwardingDisabled(packetDropped)
attr title "packet drop: forwarding disabled, packetBytes"
vector 118 Smarthome.smartphone.ipv4.ip packetDropNoInterfaceFound:vector(packetBytes) ETV
attr interpolationmode none
attr recordingmode vector(packetBytes)
attr source packetDropReasonIsNoInterfaceFound(packetDropped)
attr title "packet drop: no interface found, packetBytes"
vector 119 Smarthome.smartphone.ipv4.ip packetDropNoRouteFound:vector(packetBytes) ETV
attr interpolationmode none
attr recordingmode vector(packetBytes)
attr source packetDropReasonIsNoRouteFound(packetDropped)
attr title "packet drop: no route found, packetBytes"
vector 120 Smarthome.smartphone.ipv4.ip packetDropUndefined:vector(packetBytes) ETV
attr interpolationmode none
attr recordingmode vector(packetBytes)
attr source packetDropReasonIsUndefined(packetDropped)
attr title "packet drop: undefined, packetBytes"
vector 121 Smarthome.smartphone.ipv4.arp arpRequestSent:vector(packetBytes) ETV
attr recordingmode vector(packetBytes)
attr source arpRequestSent
attr title "ARP request sent, packetBytes"
vector 122 Smarthome.smartphone.ipv4.arp arpReplySent:vector(packetBytes) ETV
attr recordingmode vector(packetBytes)
attr source arpReplySent
attr title "ARP replies sent, packetBytes"
vector 123 Smarthome.smartphone.udp packetSent:vector(packetBytes) ETV
attr interpolationmode none
attr recordingmode vector(packetBytes)
attr source packetSent
attr title "packets sent, packetBytes"
vector 124 Smarthome.smartphone.udp packetReceived:vector(packetBytes) ETV
attr interpolationmode none
attr recordingmode vector(packetBytes)
attr source packetReceived
attr title "packets received, packetBytes"
vector 125 Smarthome.smartphone.udp passedUpPk:vector(count) ETV
attr interpolationmode none
attr recordingmode vector(count)
attr source packetSentToUpper
attr title "packets passed up, count"
vector 126 Smarthome.smartphone.udp droppedPkWrongPort:vector(count) ETV
attr interpolationmode none
attr recordingmode vector(count)
attr source packetDropReasonIsNoPortFound(packetDropped)
attr title "packets dropped (wrong port), count"
vector 127 Smarthome.smartphone.udp droppedPkBadChecksum:vector(count) ETV
attr interpolationmode none
attr recordingmode vector(count)
attr source packetDropReasonIsIncorrectlyReceived(packetDropped)
attr title "packets dropped (checksum error), count"
vector 128 Smarthome.smartphone.app[0] packetReceived:vector(packetBytes) ETV
attr interpolationmode none
attr recordingmode vector(packetBytes)
attr source packetReceived
attr title "packets received, packetBytes"
vector 129 Smarthome.smartphone.app[0] throughput:vector ETV
attr recordingmode vector
attr source throughput(packetReceived)
attr title throughput
attr unit bps
vector 130 Smarthome.smartphone.app[0] packetSent:vector(packetBytes) ETV
attr interpolationmode none
attr recordingmode vector(packetBytes)
attr source packetSent
attr title "packets sent, packetBytes"
vector 131 Smarthome.smartphone.app[0] rcvdPkLifetime:vector ETV
attr interpolationmode none
attr recordingmode vector
attr source dataAge(packetReceived)
attr title "received packet lifetime"
attr unit s
vector 132 Smarthome.smartphone.app[0] rcvdPkSeqNo:vector ETV
attr interpolationmode none
attr recordingmode vector
attr source appPkSeqNo(packetReceived)
attr title "received packet sequence number"
vector 133 Smarthome.smartphone.app[1] packetReceived:vector(packetBytes) ETV
attr interpolationmode none
attr recordingmode vector(packetBytes)
attr source packetReceived
attr title "packets received, packetBytes"
vector 134 Smarthome.smartphone.app[1] throughput:vector ETV
attr recordingmode vector
attr source throughput(packetReceived)
attr title throughput
attr unit bps
vector 135 Smarthome.smartphone.app[1] endToEndDelay:vector ETV
attr interpolationmode none
attr recordingmode vector
attr source dataAge(packetReceived)
attr title "end-to-end delay"
attr unit s
vector 136 Smarthome.smartphone.app[1] rcvdPkSeqNo:vector ETV
attr interpolationmode none
attr recordingmode vector
attr source appPkSeqNo(packetReceived)
attr title "received packet sequence number"
vector 137 Smarthome.lamp.lo[0].lo rcvdPkFromHl:vector(packetBytes) ETV
attr interpolationmode none
attr recordingmode vector(packetBytes)
attr source packetReceivedFromUpper
attr title "packets received from higher layer, packetBytes"
vector 138 Smarthome.lamp.lo[0].lo passedUpPk:vector(packetBytes) ETV
attr interpolationmode none
attr recordingmode vector(packetBytes)
attr source packetSentToUpper
attr title "packets passed to higher layer, packetBytes"
vector 139 Smarthome.lamp.lo[0] packetDropInterfaceDown:vector(packetBytes) ETV
attr interpolationmode none
attr recordingmode vector(packetBytes)
attr source packetDropReasonIsInterfaceDown(packetDropped)
attr title "packet drops: interface down, packetBytes"
vector 140 Smarthome.lamp.lo[0] packetDropNoCarrier:vector(packetBytes) ETV
attr interpolationmode none
attr recordingmode vector(packetBytes)
attr source packetDropReasonIsNoCarrier(packetDropped)
attr title "packet drops: no carrier, packetBytes"
vector 141 Smarthome.lamp.wlan[0].agent sentRequest:vector ETV
attr recordingmode vector
attr title "sent requests"
vector 142 Smarthome.lamp.wlan[0].agent acceptConfirm:vector ETV
attr recordingmode vector
attr title "accepted confirms"
vector 143 Smarthome.lamp.wlan[0].agent dropConfirm:vector ETV
attr recordingmode vector
attr title "dropped confirms"
vector 144 Smarthome.lamp.wlan[0].mac.dcf.channelAccess.pendingQueue queueLength:vector ETV
attr autoWarmupFilter false
attr interpolationmode sample-hold
attr recordingmode vector
attr source "warmup(atomic(constant0(packetPushEnded) + count(packetPushStarted) - count(packetPulled) - count(packetRemoved) - count(packetDropped)))"
attr title "queue length"
attr unit pk
vector 145 Smarthome.lamp.wlan[0].mac.dcf.channelAccess.pendingQueue queueBitLength:vector ETV
attr autoWarmupFilter false
attr interpolationmode sample-hold
attr recordingmode vector
attr source "warmup(atomic(constant0(packetPushEnded) + sum(packetLength(packetPushStarted)) - sum(packetLength(packetPulled)) - sum(packetLength(packetRemoved)) - sum(packetLength(packetDropped))))"
attr title "queue bit length"
attr unit b
vector 146 Smarthome.lamp.wlan[0].mac.dcf.channelAccess.pendingQueue queueingTime:vector ETV
attr interpolationmode none
attr recordingmode vector
attr source queueingTime(packetPulled)
attr title "queueing times"
attr unit s
vector 147 Smarthome.lamp.wlan[0].mac.dcf.channelAccess.pendingQueue incomingPacketLengths:vector ETV
attr interpolationmode none
attr recordingmode vector
attr source packetLength(packetPushStarted)
attr title "incoming packet lengths"
attr unit b
vector 148 Smarthome.lamp.wlan[0].mac.dcf.channelAccess.pendingQueue incomingDataRate:vector ETV
attr interpolationmode linear
attr recordingmode vector
attr source throughput(packetPushStarted)
attr title "incoming datarate"
attr unit bps
vector 149 Smarthome.lamp.wlan[0].mac.dcf.channelAccess.pendingQueue outgoingPacketLengths:vector ETV
attr interpolationmode none
attr recordingmode vector
attr source packetLength(packetPulled)
attr title "outgoing packet lengths"
attr unit b
vector 150 Smarthome.lamp.wlan[0].mac.dcf.channelAccess.pendingQueue outgoingDataRate:vector ETV
attr interpolationmode linear
attr recordingmode vector
attr source throughput(packetPulled)
attr title "outgoing datarate"
attr unit bps
vector 151 Smarthome.lamp.wlan[0].mac.dcf.channelAccess.pendingQueue droppedPacketLengthsQueueOverflow:vector ETV
attr interpolationmode none
attr recordingmode vector
attr source packetLength(packetDropReasonIsQueueOverflow(packetDropped))
attr title "dropped packet lengths: queue overflow"
attr unit b
vector 152 Smarthome.lamp.wlan[0].mac.dcf.channelAccess.pendingQueue flowQueueingTime:vector ETV
attr interpolationmode none
attr recordingmode vector
attr source queueingTime(demuxFlow(packetPulled))
attr title "flow queueing times"
attr unit s
vector 153 Smarthome.lamp.wlan[0].mac.dcf.channelAccess.pendingQueue flowIncomingDataRate:vector ETV
attr interpolationmode linear
attr recordingmode vector
attr source throughput(flowPacketLength(demuxFlow(packetPushStarted)))
attr title "flow specific incoming data rate"
attr unit bps
vector 154 Smarthome.lamp.wlan[0].mac.dcf.channelAccess.pendingQueue flowOutgoingDataRate:vector ETV
attr interpolationmode linear
attr recordingmode vector
attr source throughput(flowPacketLength(demuxFlow(packetPulled)))
attr title "flow specific outgoing data rate"
attr unit bps
vector 155 Smarthome.lamp.wlan[0].mac.dcf.channelAccess.inProgressFrames queueingTime:vector ETV
attr interpolationmode none
attr recordingmode vector
attr source queueingTime(packetDequeued)
attr title "queueing times"
vector 156 Smarthome.lamp.wlan[0].mac.dcf.channelAccess.inProgressFrames queueLength:vector ETV
attr autoWarmupFilter false
attr interpolationmode sample-hold
attr recordingmode vector
attr source "warmup(count(packetEnqueued) - count(packetDequeued))"
attr title "queue length"
vector 157 Smarthome.lamp.wlan[0].mac.dcf.channelAccess.contention backoffPeriodGenerated:vector ETV
attr interpolationmode none
attr recordingmode vector
attr title "backoff periods"
vector 158 Smarthome.lamp.wlan[0].mac.dcf.channelAccess.contention backoffActive:vector ETV
attr autoWarmupFilter false
attr interpolationmode sample-hold
attr recordingmode vector
attr source warmup(count(backoffStarted)-count(backoffStopped))
attr title "backoff active"
vector 159 Smarthome.lamp.wlan[0].mac.dcf.channelAccess.contention stateChanged:vector ETV
attr enum IDLE,DEFER,IFS_AND_BACKOFF
attr interpolationmode none
attr recordingmode vector
attr title "contention state changed"
attr type enum
vector 160 Smarthome.lamp.wlan[0].mac.dcf.recipientMacDataService packetDropDuplicateDetected:vector(packetBytes) ETV
attr interpolationmode none
attr recordingmode vector(packetBytes)
attr source packetDropReasonIsDuplicateDetected(packetDropped)
attr title "packet drops: duplicate detected, packetBytes"
vector 161 Smarthome.lamp.wlan[0].mac.dcf.recoveryProcedure contentionWindowChanged:vector ETV
attr interpolationmode sample-hold
attr recordingmode vector
attr title "contention window"
vector 162 Smarthome.lamp.wlan[0].mac.dcf packetSentToPeer:vector(packetBytes) ETV
attr interpolationmode none
attr recordingmode vector(packetBytes)
attr title "packets sent, packetBytes"
vector 163 Smarthome.lamp.wlan[0].mac.dcf packetSentToPeerUnicast:vector(packetBytes) ETV
attr interpolationmode none
attr recordingmode vector(packetBytes)
attr source ieee80211Unicast(packetSentToPeer)
attr title "packets sent: unicast, packetBytes"
vector 164 Smarthome.lamp.wlan[0].mac.dcf packetSentToPeerMulticast:vector(packetBytes) ETV
attr interpolationmode none
attr recordingmode vector(packetBytes)
attr source ieee80211Multicast(packetSentToPeer)
attr title "packets sent: multicast, packetBytes"
vector 165 Smarthome.lamp.wlan[0].mac.dcf packetSentToPeerBroadcast:vector(packetBytes) ETV
attr interpolationmode none
attr recordingmode vector(packetBytes)
attr source ieee80211Broadcast(packetSentToPeer)
attr title "packets sent: broadcast , packetBytes"
vector 166 Smarthome.lamp.wlan[0].mac.dcf packetSentToPeerWithRetry:vector(packetBytes) ETV
attr interpolationmode none
attr recordingmode vector(packetBytes)
attr source ieee80211Retry(packetSentToPeer)
attr title "packets sent: with retry, packetBytes"
vector 167 Smarthome.lamp.wlan[0].mac.dcf packetSentToPeerWithoutRetry:vector(packetBytes) ETV
attr interpolationmode none
attr recordingmode vector(packetBytes)
attr source ieee80211NotRetry(packetSentToPeer)
attr title "packets sent: without retry, packetBytes"
vector 168 Smarthome.lamp.wlan[0].mac.dcf packetReceivedFromPeer:vector(packetBytes) ETV
attr interpolationmode none
attr recordingmode vector(packetBytes)
attr title "packets received, packetBytes"
vector 169 Smarthome.lamp.wlan[0].mac.dcf packetReceivedFromPeerUnicast:vector(packetBytes) ETV
attr interpolationmode none
attr recordingmode vector(packetBytes)
attr source ieee80211Unicast(packetReceivedFromPeer)
attr title "packets received: unicast, packetBytes"
vector 170 Smarthome.lamp.wlan[0].mac.dcf packetReceivedFromPeerMulticast:vector(packetBytes) ETV
attr interpolationmode none
attr recordingmode vector(packetBytes)
attr source ieee80211Multicast(packetReceivedFromPeer)
attr title "packets received: multicast, packetBytes"
vector 171 Smarthome.lamp.wlan[0].mac.dcf packetReceivedFromPeerBroadcast:vector(packetBytes) ETV
attr interpolationmode none
attr recordingmode vector(packetBytes)
attr source ieee80211Broadcast(packetReceivedFromPeer)
attr title "packets received: broadcast, packetBytes"
vector 172 Smarthome.lamp.wlan[0].mac.dcf packetReceivedFromPeerWithRetry:vector(packetBytes) ETV
attr interpolationmode none
attr recordingmode vector(packetBytes)
attr source ieee80211Retry(packetReceivedFromPeer)
attr title "packets received: with retry, packetBytes"
vector 173 Smarthome.lamp.wlan[0].mac.dcf packetReceivedFromPeerWithoutRetry:vector(packetBytes) ETV
attr interpolationmode none
attr recordingmode vector(packetBytes)
attr source ieee80211NotRetry(packetReceivedFromPeer)
attr title "packets received: without retry, packetBytes"
vector 174 Smarthome.lamp.wlan[0].mac.dcf packetDrop:vector(packetBytes) ETV
attr interpolationmode none
attr recordingmode vector(packetBytes)
attr source packetDropped
attr title "packet drops, packetBytes"
vector 175 Smarthome.lamp.wlan[0].mac.dcf packetDropNotAddressedToUs:vector(packetBytes) ETV
attr interpolationmode none
attr recordingmode vector(packetBytes)
attr source packetDropReasonIsNotAddressedToUs(packetDropped)
attr title "packet drops: not addressed to us, packetBytes"
vector 176 Smarthome.lamp.wlan[0].mac.dcf packetDropQueueOverflow:vector(packetBytes) ETV
attr interpolationmode none
attr recordingmode vector(packetBytes)
attr source packetDropReasonIsQueueOverflow(packetDropped)
attr title "packet drops: queue overflow, packetBytes"
vector 177 Smarthome.lamp.wlan[0].mac.dcf packetDropRetryLimitReached:vector(packetBytes) ETV
attr interpolationmode none
attr recordingmode vector(packetBytes)
attr source packetDropReasonIsRetryLimitReached(packetDropped)
attr title "packet drops: retry limit reached, packetBytes"
vector 178 Smarthome.lamp.wlan[0].mac.dcf frameSequenceActive:vector ETV
attr autoWarmupFilter false
attr interpolationmode sample-hold
attr recordingmode vector
attr source warmup(count(frameSequenceStarted)-count(frameSequenceFinished))
attr title "frame sequence active"
vector 179 Smarthome.lamp.wlan[0].mac.dcf datarateSelected:vector ETV
attr interpolationmode none
attr recordingmode vector
attr title "datarates selected"
vector 180 Smarthome.lamp.wlan[0].mac.rx nav:vector ETV
attr interpolationmode linear
attr recordingmode vector
attr source navChanged
attr title "network allocation vector"
vector 181 Smarthome.lamp.wlan[0].mac packetSentToUpper:vector(packetBytes) ETV
attr interpolationmode none
attr recordingmode vector(packetBytes)
attr title "packets sent to upper layer, packetBytes"
vector 182 Smarthome.lamp.wlan[0].mac packetSentToLower:vector(packetBytes) ETV
attr interpolationmode none
attr recordingmode vector(packetBytes)
attr title "packets sent to lower layer, packetBytes"
vector 183 Smarthome.lamp.wlan[0].mac packetReceivedFromUpper:vector(packetBytes) ETV
attr interpolationmode none
attr recordingmode vector(packetBytes)
attr title "packets received from upper layer, packetBytes"
vector 184 Smarthome.lamp.wlan[0].mac packetReceivedFromLower:vector(packetBytes) ETV
attr interpolationmode none
attr recordingmode vector(packetBytes)
attr title "packets received from lower layer, packetBytes"
vector 185 Smarthome.lamp.wlan[0].mac packetDrop:vector(packetBytes) ETV
attr interpolationmode none
attr recordingmode vector(packetBytes)
attr source packetDropped
attr title "packet drops, packetBytes"
vector 186 Smarthome.lamp.wlan[0].mac packetDropIncorrectlyReceived:vector(packetBytes) ETV
attr interpolationmode none
attr recordingmode vector(packetBytes)
attr source packetDropReasonIsIncorrectlyReceived(packetDropped)
attr title "packet drops: incorrectly received, packetBytes"
vector 187 Smarthome.lamp.wlan[0].mac packetDropNotAddressedToUs:vector(packetBytes) ETV
attr interpolationmode none
attr recordingmode vector(packetBytes)
attr source packetDropReasonIsNotAddressedToUs(packetDropped)
attr title "packet drops: not addressed to us, packetBytes"
vector 188 Smarthome.lamp.wlan[0].mac packetDropQueueOverflow:vector(packetBytes) ETV
attr interpolationmode none
attr recordingmode vector(packetBytes)
attr source packetDropReasonIsQueueOverflow(packetDropped)
attr title "packet drops: queue overflow, packetBytes"
vector 189 Smarthome.lamp.wlan[0].mac packetDropRetryLimitReached:vector(packetBytes) ETV
attr interpolationmode none
attr recordingmode vector(packetBytes)
attr source packetDropReasonIsRetryLimitReached(packetDropped)
attr title "packet drops: retry limit reached, packetBytes"
vector 190 Smarthome.lamp.wlan[0].mac packetDropDuplicateDetected:vector(packetBytes) ETV
attr interpolationmode none
attr recordingmode vector(packetBytes)
attr source packetDropReasonIsDuplicateDetected(packetDropped)
attr title "packet drops: duplicate detected, packetBytes"
vector 191 Smarthome.lamp.wlan[0].mac packetDropOther:vector(packetBytes) ETV
attr interpolationmode none
attr recordingmode vector(packetBytes)
attr source packetDropReasonIsOther(packetDropped)
attr title "packet drops: other, packetBytes"
vector 192 Smarthome.lamp.wlan[0].radio radioMode:vector ETV
attr interpolationmode sample-hold
attr recordingmode vector
attr source radioModeChanged
attr title "Radio mode"
vector 193 Smarthome.lamp.wlan[0].radio receptionState:vector ETV
attr interpolationmode sample-hold
attr recordingmode vector
attr source receptionStateChanged
attr title "Radio reception state"
vector 194 Smarthome.lamp.wlan[0].radio transmissionState:vector ETV
attr interpolationmode sample-hold
attr recordingmode vector
attr source transmissionStateChanged
attr title "Radio transmission state"
vector 195 Smarthome.lamp.wlan[0].radio radioChannel:vector ETV
attr interpolationmode sample-hold
attr recordingmode vector
attr source radioChannelChanged
attr title "Radio channel"
vector 196 Smarthome.lamp.wlan[0] packetDropInterfaceDown:vector(packetBytes) ETV
attr interpolationmode none
attr recordingmode vector(packetBytes)
attr source packetDropReasonIsInterfaceDown(packetDropped)
attr title "packet drops: interface down, packetBytes"
vector 197 Smarthome.lamp.wlan[0] packetDropNoCarrier:vector(packetBytes) ETV
attr interpolationmode none
attr recordingmode vector(packetBytes)
attr source packetDropReasonIsNoCarrier(packetDropped)
attr title "packet drops: no carrier, packetBytes"
vector 198 Smarthome.lamp.ipv4.ip packetDropAddressResolutionFailed:vector(packetBytes) ETV
attr interpolationmode none
attr recordingmode vector(packetBytes)
attr source packetDropReasonIsAddressResolutionFailed(packetDropped)
attr title "packet drop: address resolution failed, packetBytes"
vector 199 Smarthome.lamp.ipv4.ip packetDropHopLimitReached:vector(packetBytes) ETV
attr interpolationmode none
attr recordingmode vector(packetBytes)
attr source packetDropReasonIsHopLimitReached(packetDropped)
attr title "packet drop: hop limit reached, packetBytes"
vector 200 Smarthome.lamp.ipv4.ip packetDropForwardingDisabled:vector(packetBytes) ETV
attr interpolationmode none
attr recordingmode vector(packetBytes)
attr source packetDropReasonIsForwardingDisabled(packetDropped)
attr title "packet drop: forwarding disabled, packetBytes"
vector 201 Smarthome.lamp.ipv4.ip packetDropNoInterfaceFound:vector(packetBytes) ETV
attr interpolationmode none
attr recordingmode vector(packetBytes)
attr source packetDropReasonIsNoInterfaceFound(packetDropped)
attr title "packet drop: no interface found, packetBytes"
vector 202 Smarthome.lamp.ipv4.ip packetDropNoRouteFound:vector(packetBytes) ETV
attr interpolationmode none
attr recordingmode vector(packetBytes)
attr source packetDropReasonIsNoRouteFound(packetDropped)
attr title "packet drop: no route found, packetBytes"
vector 203 Smarthome.lamp.ipv4.ip packetDropUndefined:vector(packetBytes) ETV
attr interpolationmode none
attr recordingmode vector(packetBytes)
attr source packetDropReasonIsUndefined(packetDropped)
attr title "packet drop: undefined, packetBytes"
vector 204 Smarthome.lamp.ipv4.arp arpRequestSent:vector(packetBytes) ETV
attr recordingmode vector(packetBytes)
attr source arpRequestSent
attr title "ARP request sent, packetBytes"
vector 205 Smarthome.lamp.ipv4.arp arpReplySent:vector(packetBytes) ETV
attr recordingmode vector(packetBytes)
attr source arpReplySent
attr title "ARP replies sent, packetBytes"
vector 206 Smarthome.lamp.udp packetSent:vector(packetBytes) ETV
attr interpolationmode none
attr recordingmode vector(packetBytes)
attr source packetSent
attr title "packets sent, packetBytes"
vector 207 Smarthome.lamp.udp packetReceived:vector(packetBytes) ETV
attr interpolationmode none
attr recordingmode vector(packetBytes)
attr source packetReceived
attr title "packets received, packetBytes"
vector 208 Smarthome.lamp.udp passedUpPk:vector(count) ETV
attr interpolationmode none
attr recordingmode vector(count)
attr source packetSentToUpper
attr title "packets passed up, count"
vector 209 Smarthome.lamp.udp droppedPkWrongPort:vector(count) ETV
attr interpolationmode none
attr recordingmode vector(count)
attr source packetDropReasonIsNoPortFound(packetDropped)
attr title "packets dropped (wrong port), count"
vector 210 Smarthome.lamp.udp droppedPkBadChecksum:vector(count) ETV
attr interpolationmode none
attr recordingmode vector(count)
attr source packetDropReasonIsIncorrectlyReceived(packetDropped)
attr title "packets dropped (checksum error), count"
vector 211 Smarthome.lamp.app[0] packetReceived:vector(packetBytes) ETV
attr interpolationmode none
attr recordingmode vector(packetBytes)
attr source packetReceived
attr title "packets received, packetBytes"
vector 212 Smarthome.lamp.app[0] throughput:vector ETV
attr recordingmode vector
attr source throughput(packetReceived)
attr title throughput
attr unit bps
vector 213 Smarthome.lamp.app[0] packetSent:vector(packetBytes) ETV
attr interpolationmode none
attr recordingmode vector(packetBytes)
attr source packetSent
attr title "packets sent, packetBytes"
vector 214 Smarthome.lamp.app[0] rcvdPkLifetime:vector ETV
attr interpolationmode none
attr recordingmode vector
attr source dataAge(packetReceived)
attr title "received packet lifetime"
attr unit s
vector 215 Smarthome.lamp.app[0] rcvdPkSeqNo:vector ETV
attr interpolationmode none
attr recordingmode vector
attr source appPkSeqNo(packetReceived)
attr title "received packet sequence number"
vector 216 Smarthome.lamp.app[1] packetReceived:vector(packetBytes) ETV
attr interpolationmode none
attr recordingmode vector(packetBytes)
attr source packetReceived
attr title "packets received, packetBytes"
vector 217 Smarthome.lamp.app[1] throughput:vector ETV
attr recordingmode vector
attr source throughput(packetReceived)
attr title throughput
attr unit bps
vector 218 Smarthome.lamp.app[1] endToEndDelay:vector ETV
attr interpolationmode none
attr recordingmode vector
attr source dataAge(packetReceived)
attr title "end-to-end delay"
attr unit s
vector 219 Smarthome.lamp.app[1] rcvdPkSeqNo:vector ETV
attr interpolationmode none
attr recordingmode vector
attr source appPkSeqNo(packetReceived)
attr title "received packet sequence number"
vector 220 Smarthome.thermostat.lo[0].lo rcvdPkFromHl:vector(packetBytes) ETV
attr interpolationmode none
attr recordingmode vector(packetBytes)
attr source packetReceivedFromUpper
attr title "packets received from higher layer, packetBytes"
vector 221 Smarthome.thermostat.lo[0].lo passedUpPk:vector(packetBytes) ETV
attr interpolationmode none
attr recordingmode vector(packetBytes)
attr source packetSentToUpper
attr title "packets passed to higher layer, packetBytes"
vector 222 Smarthome.thermostat.lo[0] packetDropInterfaceDown:vector(packetBytes) ETV
attr interpolationmode none
attr recordingmode vector(packetBytes)
attr source packetDropReasonIsInterfaceDown(packetDropped)
attr title "packet drops: interface down, packetBytes"
vector 223 Smarthome.thermostat.lo[0] packetDropNoCarrier:vector(packetBytes) ETV
attr interpolationmode none
attr recordingmode vector(packetBytes)
attr source packetDropReasonIsNoCarrier(packetDropped)
attr title "packet drops: no carrier, packetBytes"
vector 224 Smarthome.thermostat.wlan[0].agent sentRequest:vector ETV
attr recordingmode vector
attr title "sent requests"
vector 225 Smarthome.thermostat.wlan[0].agent acceptConfirm:vector ETV
attr recordingmode vector
attr title "accepted confirms"
vector 226 Smarthome.thermostat.wlan[0].agent dropConfirm:vector ETV
attr recordingmode vector
attr title "dropped confirms"
vector 227 Smarthome.thermostat.wlan[0].mac.dcf.channelAccess.pendingQueue queueLength:vector ETV
attr autoWarmupFilter false
attr interpolationmode sample-hold
attr recordingmode vector
attr source "warmup(atomic(constant0(packetPushEnded) + count(packetPushStarted) - count(packetPulled) - count(packetRemoved) - count(packetDropped)))"
attr title "queue length"
attr unit pk
vector 228 Smarthome.thermostat.wlan[0].mac.dcf.channelAccess.pendingQueue queueBitLength:vector ETV
attr autoWarmupFilter false
attr interpolationmode sample-hold
attr recordingmode vector
attr source "warmup(atomic(constant0(packetPushEnded) + sum(packetLength(packetPushStarted)) - sum(packetLength(packetPulled)) - sum(packetLength(packetRemoved)) - sum(packetLength(packetDropped))))"
attr title "queue bit length"
attr unit b
vector 229 Smarthome.thermostat.wlan[0].mac.dcf.channelAccess.pendingQueue queueingTime:vector ETV
attr interpolationmode none
attr recordingmode vector
attr source queueingTime(packetPulled)
attr title "queueing times"
attr unit s
vector 230 Smarthome.thermostat.wlan[0].mac.dcf.channelAccess.pendingQueue incomingPacketLengths:vector ETV
attr interpolationmode none
attr recordingmode vector
attr source packetLength(packetPushStarted)
attr title "incoming packet lengths"
attr unit b
vector 231 Smarthome.thermostat.wlan[0].mac.dcf.channelAccess.pendingQueue incomingDataRate:vector ETV
attr interpolationmode linear
attr recordingmode vector
attr source throughput(packetPushStarted)
attr title "incoming datarate"
attr unit bps
vector 232 Smarthome.thermostat.wlan[0].mac.dcf.channelAccess.pendingQueue outgoingPacketLengths:vector ETV
attr interpolationmode none
attr recordingmode vector
attr source packetLength(packetPulled)
attr title "outgoing packet lengths"
attr unit b
vector 233 Smarthome.thermostat.wlan[0].mac.dcf.channelAccess.pendingQueue outgoingDataRate:vector ETV
attr interpolationmode linear
attr recordingmode vector
attr source throughput(packetPulled)
attr title "outgoing datarate"
attr unit bps
vector 234 Smarthome.thermostat.wlan[0].mac.dcf.channelAccess.pendingQueue droppedPacketLengthsQueueOverflow:vector ETV
attr interpolationmode none
attr recordingmode vector
attr source packetLength(packetDropReasonIsQueueOverflow(packetDropped))
attr title "dropped packet lengths: queue overflow"
attr unit b
vector 235 Smarthome.thermostat.wlan[0].mac.dcf.channelAccess.pendingQueue flowQueueingTime:vector ETV
attr interpolationmode none
attr recordingmode vector
attr source queueingTime(demuxFlow(packetPulled))
attr title "flow queueing times"
attr unit s
vector 236 Smarthome.thermostat.wlan[0].mac.dcf.channelAccess.pendingQueue flowIncomingDataRate:vector ETV
attr interpolationmode linear
attr recordingmode vector
attr source throughput(flowPacketLength(demuxFlow(packetPushStarted)))
attr title "flow specific incoming data rate"
attr unit bps
vector 237 Smarthome.thermostat.wlan[0].mac.dcf.channelAccess.pendingQueue flowOutgoingDataRate:vector ETV
attr interpolationmode linear
attr recordingmode vector
attr source throughput(flowPacketLength(demuxFlow(packetPulled)))
attr title "flow specific outgoing data rate"
attr unit bps
vector 238 Smarthome.thermostat.wlan[0].mac.dcf.channelAccess.inProgressFrames queueingTime:vector ETV
attr interpolationmode none
attr recordingmode vector
attr source queueingTime(packetDequeued)
attr title "queueing times"
vector 239 Smarthome.thermostat.wlan[0].mac.dcf.channelAccess.inProgressFrames queueLength:vector ETV
attr autoWarmupFilter false
attr interpolationmode sample-hold
attr recordingmode vector
attr source "warmup(count(packetEnqueued) - count(packetDequeued))"
attr title "queue length"
vector 240 Smarthome.thermostat.wlan[0].mac.dcf.channelAccess.contention backoffPeriodGenerated:vector ETV
attr interpolationmode none
attr recordingmode vector
attr title "backoff periods"
vector 241 Smarthome.thermostat.wlan[0].mac.dcf.channelAccess.contention backoffActive:vector ETV
attr autoWarmupFilter false
attr interpolationmode sample-hold
attr recordingmode vector
attr source warmup(count(backoffStarted)-count(backoffStopped))
attr title "backoff active"
vector 242 Smarthome.thermostat.wlan[0].mac.dcf.channelAccess.contention stateChanged:vector ETV
attr enum IDLE,DEFER,IFS_AND_BACKOFF
attr interpolationmode none
attr recordingmode vector
attr title "contention state changed"
attr type enum
vector 243 Smarthome.thermostat.wlan[0].mac.dcf.recipientMacDataService packetDropDuplicateDetected:vector(packetBytes) ETV
attr interpolationmode none
attr recordingmode vector(packetBytes)
attr source packetDropReasonIsDuplicateDetected(packetDropped)
attr title "packet drops: duplicate detected, packetBytes"
vector 244 Smarthome.thermostat.wlan[0].mac.dcf.recoveryProcedure contentionWindowChanged:vector ETV
attr interpolationmode sample-hold
attr recordingmode vector
attr title "contention window"
vector 245 Smarthome.thermostat.wlan[0].mac.dcf packetSentToPeer:vector(packetBytes) ETV
attr interpolationmode none
attr recordingmode vector(packetBytes)
attr title "packets sent, packetBytes"
vector 246 Smarthome.thermostat.wlan[0].mac.dcf packetSentToPeerUnicast:vector(packetBytes) ETV
attr interpolationmode none
attr recordingmode vector(packetBytes)
attr source ieee80211Unicast(packetSentToPeer)
attr title "packets sent: unicast, packetBytes"
vector 247 Smarthome.thermostat.wlan[0].mac.dcf packetSentToPeerMulticast:vector(packetBytes) ETV
attr interpolationmode none
attr recordingmode vector(packetBytes)
attr source ieee80211Multicast(packetSentToPeer)
attr title "packets sent: multicast, packetBytes"
vector 248 Smarthome.thermostat.wlan[0].mac.dcf packetSentToPeerBroadcast:vector(packetBytes) ETV
attr interpolationmode none
attr recordingmode vector(packetBytes)
attr source ieee80211Broadcast(packetSentToPeer)
attr title "packets sent: broadcast , packetBytes"
vector 249 Smarthome.thermostat.wlan[0].mac.dcf packetSentToPeerWithRetry:vector(packetBytes) ETV
attr interpolationmode none
attr recordingmode vector(packetBytes)
attr source ieee80211Retry(packetSentToPeer)
attr title "packets sent: with retry, packetBytes"
vector 250 Smarthome.thermostat.wlan[0].mac.dcf packetSentToPeerWithoutRetry:vector(packetBytes) ETV
attr interpolationmode none
attr recordingmode vector(packetBytes)
attr source ieee80211NotRetry(packetSentToPeer)
attr title "packets sent: without retry, packetBytes"
vector 251 Smarthome.thermostat.wlan[0].mac.dcf packetReceivedFromPeer:vector(packetBytes) ETV
attr interpolationmode none
attr recordingmode vector(packetBytes)
attr title "packets received, packetBytes"
vector 252 Smarthome.thermostat.wlan[0].mac.dcf packetReceivedFromPeerUnicast:vector(packetBytes) ETV
attr interpolationmode none
attr recordingmode vector(packetBytes)
attr source ieee80211Unicast(packetReceivedFromPeer)
attr title "packets received: unicast, packetBytes"
vector 253 Smarthome.thermostat.wlan[0].mac.dcf packetReceivedFromPeerMulticast:vector(packetBytes) ETV
attr interpolationmode none
attr recordingmode vector(packetBytes)
attr source ieee80211Multicast(packetReceivedFromPeer)
attr title "packets received: multicast, packetBytes"
vector 254 Smarthome.thermostat.wlan[0].mac.dcf packetReceivedFromPeerBroadcast:vector(packetBytes) ETV
attr interpolationmode none
attr recordingmode vector(packetBytes)
attr source ieee80211Broadcast(packetReceivedFromPeer)
attr title "packets received: broadcast, packetBytes"
vector 255 Smarthome.thermostat.wlan[0].mac.dcf packetReceivedFromPeerWithRetry:vector(packetBytes) ETV
attr interpolationmode none
attr recordingmode vector(packetBytes)
attr source ieee80211Retry(packetReceivedFromPeer)
attr title "packets received: with retry, packetBytes"
vector 256 Smarthome.thermostat.wlan[0].mac.dcf packetReceivedFromPeerWithoutRetry:vector(packetBytes) ETV
attr interpolationmode none
attr recordingmode vector(packetBytes)
attr source ieee80211NotRetry(packetReceivedFromPeer)
attr title "packets received: without retry, packetBytes"
vector 257 Smarthome.thermostat.wlan[0].mac.dcf packetDrop:vector(packetBytes) ETV
attr interpolationmode none
attr recordingmode vector(packetBytes)
attr source packetDropped
attr title "packet drops, packetBytes"
vector 258 Smarthome.thermostat.wlan[0].mac.dcf packetDropNotAddressedToUs:vector(packetBytes) ETV
attr interpolationmode none
attr recordingmode vector(packetBytes)
attr source packetDropReasonIsNotAddressedToUs(packetDropped)
attr title "packet drops: not addressed to us, packetBytes"
vector 259 Smarthome.thermostat.wlan[0].mac.dcf packetDropQueueOverflow:vector(packetBytes) ETV
attr interpolationmode none
attr recordingmode vector(packetBytes)
attr source packetDropReasonIsQueueOverflow(packetDropped)
attr title "packet drops: queue overflow, packetBytes"
vector 260 Smarthome.thermostat.wlan[0].mac.dcf packetDropRetryLimitReached:vector(packetBytes) ETV
attr interpolationmode none
attr recordingmode vector(packetBytes)
attr source packetDropReasonIsRetryLimitReached(packetDropped)
attr title "packet drops: retry limit reached, packetBytes"
vector 261 Smarthome.thermostat.wlan[0].mac.dcf frameSequenceActive:vector ETV
attr autoWarmupFilter false
attr interpolationmode sample-hold
attr recordingmode vector
attr source warmup(count(frameSequenceStarted)-count(frameSequenceFinished))
attr title "frame sequence active"
vector 262 Smarthome.thermostat.wlan[0].mac.dcf datarateSelected:vector ETV
attr interpolationmode none
attr recordingmode vector
attr title "datarates selected"
vector 263 Smarthome.thermostat.wlan[0].mac.rx nav:vector ETV
attr interpolationmode linear
attr recordingmode vector
attr source navChanged
attr title "network allocation vector"
vector 264 Smarthome.thermostat.wlan[0].mac packetSentToUpper:vector(packetBytes) ETV
attr interpolationmode none
attr recordingmode vector(packetBytes)
attr title "packets sent to upper layer, packetBytes"
vector 265 Smarthome.thermostat.wlan[0].mac packetSentToLower:vector(packetBytes) ETV
attr interpolationmode none
attr recordingmode vector(packetBytes)
attr title "packets sent to lower layer, packetBytes"
vector 266 Smarthome.thermostat.wlan[0].mac packetReceivedFromUpper:vector(packetBytes) ETV
attr interpolationmode none
attr recordingmode vector(packetBytes)
attr title "packets received from upper layer, packetBytes"
vector 267 Smarthome.thermostat.wlan[0].mac packetReceivedFromLower:vector(packetBytes) ETV
attr interpolationmode none
attr recordingmode vector(packetBytes)
attr title "packets received from lower layer, packetBytes"
vector 268 Smarthome.thermostat.wlan[0].mac packetDrop:vector(packetBytes) ETV
attr interpolationmode none
attr recordingmode vector(packetBytes)
attr source packetDropped
attr title "packet drops, packetBytes"
vector 269 Smarthome.thermostat.wlan[0].mac packetDropIncorrectlyReceived:vector(packetBytes) ETV
attr interpolationmode none
attr recordingmode vector(packetBytes)
attr source packetDropReasonIsIncorrectlyReceived(packetDropped)
attr title "packet drops: incorrectly received, packetBytes"
vector 270 Smarthome.thermostat.wlan[0].mac packetDropNotAddressedToUs:vector(packetBytes) ETV
attr interpolationmode none
attr recordingmode vector(packetBytes)
attr source packetDropReasonIsNotAddressedToUs(packetDropped)
attr title "packet drops: not addressed to us, packetBytes"
vector 271 Smarthome.thermostat.wlan[0].mac packetDropQueueOverflow:vector(packetBytes) ETV
attr interpolationmode none
attr recordingmode vector(packetBytes)
attr source packetDropReasonIsQueueOverflow(packetDropped)
attr title "packet drops: queue overflow, packetBytes"
vector 272 Smarthome.thermostat.wlan[0].mac packetDropRetryLimitReached:vector(packetBytes) ETV
attr interpolationmode none
attr recordingmode vector(packetBytes)
attr source packetDropReasonIsRetryLimitReached(packetDropped)
attr title "packet drops: retry limit reached, packetBytes"
vector 273 Smarthome.thermostat.wlan[0].mac packetDropDuplicateDetected:vector(packetBytes) ETV
attr interpolationmode none
attr recordingmode vector(packetBytes)
attr source packetDropReasonIsDuplicateDetected(packetDropped)
attr title "packet drops: duplicate detected, packetBytes"
vector 274 Smarthome.thermostat.wlan[0].mac packetDropOther:vector(packetBytes) ETV
attr interpolationmode none
attr recordingmode vector(packetBytes)
attr source packetDropReasonIsOther(packetDropped)
attr title "packet drops: other, packetBytes"
vector 275 Smarthome.thermostat.wlan[0].radio radioMode:vector ETV
attr interpolationmode sample-hold
attr recordingmode vector
attr source radioModeChanged
attr title "Radio mode"
vector 276 Smarthome.thermostat.wlan[0].radio receptionState:vector ETV
attr interpolationmode sample-hold
attr recordingmode vector
attr source receptionStateChanged
attr title "Radio reception state"
vector 277 Smarthome.thermostat.wlan[0].radio transmissionState:vector ETV
attr interpolationmode sample-hold
attr recordingmode vector
attr source transmissionStateChanged
attr title "Radio transmission state"
vector 278 Smarthome.thermostat.wlan[0].radio radioChannel:vector ETV
attr interpolationmode sample-hold
attr recordingmode vector
attr source radioChannelChanged
attr title "Radio channel"
vector 279 Smarthome.thermostat.wlan[0] packetDropInterfaceDown:vector(packetBytes) ETV
attr interpolationmode none
attr recordingmode vector(packetBytes)
attr source packetDropReasonIsInterfaceDown(packetDropped)
attr title "packet drops: interface down, packetBytes"
vector 280 Smarthome.thermostat.wlan[0] packetDropNoCarrier:vector(packetBytes) ETV
attr interpolationmode none
attr recordingmode vector(packetBytes)
attr source packetDropReasonIsNoCarrier(packetDropped)
attr title "packet drops: no carrier, packetBytes"
vector 281 Smarthome.thermostat.ipv4.ip packetDropAddressResolutionFailed:vector(packetBytes) ETV
attr interpolationmode none
attr recordingmode vector(packetBytes)
attr source packetDropReasonIsAddressResolutionFailed(packetDropped)
attr title "packet drop: address resolution failed, packetBytes"
vector 282 Smarthome.thermostat.ipv4.ip packetDropHopLimitReached:vector(packetBytes) ETV
attr interpolationmode none
attr recordingmode vector(packetBytes)
attr source packetDropReasonIsHopLimitReached(packetDropped)
attr title "packet drop: hop limit reached, packetBytes"
vector 283 Smarthome.thermostat.ipv4.ip packetDropForwardingDisabled:vector(packetBytes) ETV
attr interpolationmode none
attr recordingmode vector(packetBytes)
attr source packetDropReasonIsForwardingDisabled(packetDropped)
attr title "packet drop: forwarding disabled, packetBytes"
vector 284 Smarthome.thermostat.ipv4.ip packetDropNoInterfaceFound:vector(packetBytes) ETV
attr interpolationmode none
attr recordingmode vector(packetBytes)
attr source packetDropReasonIsNoInterfaceFound(packetDropped)
attr title "packet drop: no interface found, packetBytes"
vector 285 Smarthome.thermostat.ipv4.ip packetDropNoRouteFound:vector(packetBytes) ETV
attr interpolationmode none
attr recordingmode vector(packetBytes)
attr source packetDropReasonIsNoRouteFound(packetDropped)
attr title "packet drop: no route found, packetBytes"
vector 286 Smarthome.thermostat.ipv4.ip packetDropUndefined:vector(packetBytes) ETV
attr interpolationmode none
attr recordingmode vector(packetBytes)
attr source packetDropReasonIsUndefined(packetDropped)
attr title "packet drop: undefined, packetBytes"
vector 287 Smarthome.thermostat.ipv4.arp arpRequestSent:vector(packetBytes) ETV
attr recordingmode vector(packetBytes)
attr source arpRequestSent
attr title "ARP request sent, packetBytes"
vector 288 Smarthome.thermostat.ipv4.arp arpReplySent:vector(packetBytes) ETV
attr recordingmode vector(packetBytes)
attr source arpReplySent
attr title "ARP replies sent, packetBytes"
vector 289 Smarthome.thermostat.udp packetSent:vector(packetBytes) ETV
attr interpolationmode none
attr recordingmode vector(packetBytes)
attr source packetSent
attr title "packets sent, packetBytes"
vector 290 Smarthome.thermostat.udp packetReceived:vector(packetBytes) ETV
attr interpolationmode none
attr recordingmode vector(packetBytes)
attr source packetReceived
attr title "packets received, packetBytes"
vector 291 Smarthome.thermostat.udp passedUpPk:vector(count) ETV
attr interpolationmode none
attr recordingmode vector(count)
attr source packetSentToUpper
attr title "packets passed up, count"
vector 292 Smarthome.thermostat.udp droppedPkWrongPort:vector(count) ETV
attr interpolationmode none
attr recordingmode vector(count)
attr source packetDropReasonIsNoPortFound(packetDropped)
attr title "packets dropped (wrong port), count"
vector 293 Smarthome.thermostat.udp droppedPkBadChecksum:vector(count) ETV
attr interpolationmode none
attr recordingmode vector(count)
attr source packetDropReasonIsIncorrectlyReceived(packetDropped)
attr title "packets dropped (checksum error), count"
vector 294 Smarthome.thermostat.app[0] packetReceived:vector(packetBytes) ETV
attr interpolationmode none
attr recordingmode vector(packetBytes)
attr source packetReceived
attr title "packets received, packetBytes"
vector 295 Smarthome.thermostat.app[0] throughput:vector ETV
attr recordingmode vector
attr source throughput(packetReceived)
attr title throughput
attr unit bps
vector 296 Smarthome.thermostat.app[0] packetSent:vector(packetBytes) ETV
attr interpolationmode none
attr recordingmode vector(packetBytes)
attr source packetSent
attr title "packets sent, packetBytes"
vector 297 Smarthome.thermostat.app[0] rcvdPkLifetime:vector ETV
attr interpolationmode none
attr recordingmode vector
attr source dataAge(packetReceived)
attr title "received packet lifetime"
attr unit s
vector 298 Smarthome.thermostat.app[0] rcvdPkSeqNo:vector ETV
attr interpolationmode none
attr recordingmode vector
attr source appPkSeqNo(packetReceived)
attr title "received packet sequence number"
vector 299 Smarthome.thermostat.app[1] packetReceived:vector(packetBytes) ETV
attr interpolationmode none
attr recordingmode vector(packetBytes)
attr source packetReceived
attr title "packets received, packetBytes"
vector 300 Smarthome.thermostat.app[1] throughput:vector ETV
attr recordingmode vector
attr source throughput(packetReceived)
attr title throughput
attr unit bps
vector 301 Smarthome.thermostat.app[1] endToEndDelay:vector ETV
attr interpolationmode none
attr recordingmode vector
attr source dataAge(packetReceived)
attr title "end-to-end delay"
attr unit s
vector 302 Smarthome.thermostat.app[1] rcvdPkSeqNo:vector ETV
attr interpolationmode none
attr recordingmode vector
attr source appPkSeqNo(packetReceived)
attr title "received packet sequence number"
vector 303 Smarthome.smartTV.lo[0].lo rcvdPkFromHl:vector(packetBytes) ETV
attr interpolationmode none
attr recordingmode vector(packetBytes)
attr source packetReceivedFromUpper
attr title "packets received from higher layer, packetBytes"
vector 304 Smarthome.smartTV.lo[0].lo passedUpPk:vector(packetBytes) ETV
attr interpolationmode none
attr recordingmode vector(packetBytes)
attr source packetSentToUpper
attr title "packets passed to higher layer, packetBytes"
vector 305 Smarthome.smartTV.lo[0] packetDropInterfaceDown:vector(packetBytes) ETV
attr interpolationmode none
attr recordingmode vector(packetBytes)
attr source packetDropReasonIsInterfaceDown(packetDropped)
attr title "packet drops: interface down, packetBytes"
vector 306 Smarthome.smartTV.lo[0] packetDropNoCarrier:vector(packetBytes) ETV
attr interpolationmode none
attr recordingmode vector(packetBytes)
attr source packetDropReasonIsNoCarrier(packetDropped)
attr title "packet drops: no carrier, packetBytes"
[...]
193	432	0.338018406455	1
193	445	0.34365166812	3
193	457	0.34368966812	1
193	471	0.343840186507	3
193	479	0.343886186507	1
193	493	0.34389726685	3
193	507	0.34393126685	1
194	169	0.215032456396	1
194	170	0.215032456396	2
194	176	0.215070456396	1
194	177	0.215070456396	0
194	217	0.215437994802	1
194	218	0.215437994802	2
194	226	0.215471994802	1
194	227	0.215471994802	0
195	0	0	0
195	52	0.115032456396	0
208	0	0	0
209	0	0	0
210	0	0	0
224	53	0.143299533497	1
227	0	0	0
227	0	0	0
227	0	0	0
227	0	0	0
227	0	0	0
227	249	0.243299533497	1
227	251	0.243299533497	0
228	0	0	0
228	0	0	0
228	0	0	0
228	0	0	0
228	0	0	0
228	249	0.243299533497	256
228	251	0.243299533497	0
229	251	0.243299533497	0
230	249	0.243299533497	256
231	249	0.1	0
231	249	0.2	0
232	251	0.243299533497	256
233	251	0.1	0
233	251	0.2	0
238	259	0.243337533497	3.8e-05
239	0	0	0
239	0	0	0
239	251	0.243299533497	1
239	259	0.243337533497	0
240	249	0.243299533497	8
241	0	0	0
241	0	0	0
241	249	0.243299533497	1
241	250	0.243299533497	0
242	0	0	0
242	0	0	0
242	25	0.05289062101	0
242	25	0.05289062101	0
242	38	0.05293662101	0
242	38	0.05293662101	0
242	66	0.15289062101	0
242	66	0.15289062101	0
242	79	0.15293662101	0
242	79	0.15293662101	0
242	96	0.181799296025	0
242	96	0.181799296025	0
242	112	0.181837296025	0
242	112	0.181837296025	0
242	122	0.181987298137	0
242	122	0.181987298137	0
242	132	0.182033298137	0
242	132	0.182033298137	0
242	133	0.182033298137	0
242	133	0.182033298137	0
242	160	0.182079857875	0
242	160	0.182079857875	0
242	175	0.215034148132	0
242	175	0.215034148132	0
242	191	0.215072148132	0
242	191	0.215072148132	0
242	201	0.215382354456	0
242	201	0.215382354456	0
242	212	0.215428354456	0
242	212	0.215428354456	0
242	213	0.215428354456	0
242	213	0.215428354456	0
242	239	0.215473686538	0
242	239	0.215473686538	0
242	249	0.243299533497	0
242	249	0.243299533497	2
242	250	0.243299533497	2
242	250	0.243299533497	0
242	252	0.243299533497	0
242	252	0.243299533497	0
242	260	0.243337533497	0
242	260	0.243337533497	0
242	284	0.243569791211	0
242	284	0.243569791211	0
242	294	0.243615791211	0
242	294	0.243615791211	0
242	300	0.243625791211	0
242	300	0.243625791211	0
242	315	0.243659791211	0
242	315	0.243659791211	0
242	336	0.25289062101	0
242	336	0.25289062101	0
242	349	0.25293662101	0
242	349	0.25293662101	0
242	367	0.33751830738	0
242	367	0.33751830738	0
242	377	0.33755630738	0
242	377	0.33755630738	0
242	396	0.337927350011	0
242	396	0.337927350011	0
242	407	0.337973350011	0
242	407	0.337973350011	0
242	408	0.337973350011	0
242	408	0.337973350011	0
242	428	0.33801772963	0
242	428	0.33801772963	0
242	447	0.343652486437	0
242	447	0.343652486437	0
242	463	0.343690486437	0
242	463	0.343690486437	0
242	473	0.343840546161	0
242	473	0.343840546161	0
242	484	0.343886546161	0
242	484	0.343886546161	0
242	485	0.343886546161	0
242	485	0.343886546161	0
242	511	0.343932085167	0
242	511	0.343932085167	0
244	0	0	31
245	259	0.243337533497	32
245	314	0.243659791211	14
246	314	0.243659791211	14
247	259	0.243337533497	32
248	259	0.243337533497	32
250	259	0.243337533497	32
250	314	0.243659791211	14
251	39	0.05293662101	48
251	80	0.15293662101	48
251	113	0.181837296025	32
251	192	0.215072148132	32
251	295	0.243615791211	48
251	350	0.25293662101	48
251	378	0.33755630738	32
251	464	0.343690486437	32
252	295	0.243615791211	48
253	39	0.05293662101	48
253	80	0.15293662101	48
253	113	0.181837296025	32
253	192	0.215072148132	32
253	350	0.25293662101	48
253	378	0.33755630738	32
253	464	0.343690486437	32
254	39	0.05293662101	48
254	80	0.15293662101	48
254	113	0.181837296025	32
254	192	0.215072148132	32
254	350	0.25293662101	48
254	378	0.33755630738	32
254	464	0.343690486437	32
256	39	0.05293662101	48
256	80	0.15293662101	48
256	113	0.181837296025	32
256	192	0.215072148132	32
256	295	0.243615791211	48
256	350	0.25293662101	48
256	378	0.33755630738	32
256	464	0.343690486437	32
257	133	0.182033298137	48
257	161	0.182079857875	14
257	213	0.215428354456	48
257	240	0.215473686538	14
257	408	0.337973350011	48
257	429	0.33801772963	14
257	485	0.343886546161	48
257	512	0.343932085167	14
258	133	0.182033298137	48
258	161	0.182079857875	14
258	213	0.215428354456	48
258	240	0.215473686538	14
258	408	0.337973350011	48
258	429	0.33801772963	14
258	485	0.343886546161	48
258	512	0.343932085167	14
261	0	0	0
261	0	0	0
261	251	0.243299533497	1
261	259	0.243337533497	0
262	251	0.243299533497	24000000
262	295	0.243615791211	24000000
263	133	0.182033298137	0
263	133	0.182033298137	4.4e-05
263	149	0.182077298137	0
263	213	0.215428354456	0
263	213	0.215428354456	4.4e-05
263	229	0.215472354456	0
263	408	0.337973350011	0
263	408	0.337973350011	4.4e-05
263	424	0.338017350011	0
263	485	0.343886546161	0
263	485	0.343886546161	4.4e-05
263	501	0.343930546161	0
265	251	0.243299533497	32
265	299	0.243625791211	14
267	39	0.05293662101	48
267	80	0.15293662101	48
267	113	0.181837296025	32
267	133	0.182033298137	48
267	161	0.182079857875	14
267	192	0.215072148132	32
267	213	0.215428354456	48
267	240	0.215473686538	14
267	295	0.243615791211	48
267	350	0.25293662101	48
267	378	0.33755630738	32
267	408	0.337973350011	48
267	429	0.33801772963	14
267	464	0.343690486437	32
267	485	0.343886546161	48
267	512	0.343932085167	14
268	133	0.182033298137	48
268	161	0.182079857875	14
268	213	0.215428354456	48
268	240	0.215473686538	14
268	408	0.337973350011	48
268	429	0.33801772963	14
268	485	0.343886546161	48
268	512	0.343932085167	14
270	133	0.182033298137	48
270	161	0.182079857875	14
270	213	0.215428354456	48
270	240	0.215473686538	14
270	408	0.337973350011	48
270	429	0.33801772963	14
270	485	0.343886546161	48
270	512	0.343932085167	14
275	0	0	0
275	0	0	0
275	0	0	2
275	252	0.243299533497	3
275	260	0.243337533497	2
275	300	0.243625791211	3
275	315	0.243659791211	2
276	0	0	1
276	25	0.05289062101	3
276	38	0.05293662101	1
276	66	0.15289062101	3
276	79	0.15293662101	1
276	96	0.181799296025	3
276	112	0.181837296025	1
276	122	0.181987298137	3
276	132	0.182033298137	1
276	144	0.182045857875	3
276	160	0.182079857875	1
276	175	0.215034148132	3
276	191	0.215072148132	1
276	201	0.215382354456	3
276	212	0.215428354456	1
276	223	0.215439686538	3
276	239	0.215473686538	1
276	252	0.243299533497	0
276	260	0.243337533497	1
276	284	0.243569791211	3
276	294	0.243615791211	1
276	300	0.243625791211	0
276	315	0.243659791211	1
276	336	0.25289062101	3
276	349	0.25293662101	1
276	367	0.33751830738	3
276	377	0.33755630738	1
276	396	0.337927350011	3
276	407	0.337973350011	1
276	415	0.33798372963	3
276	428	0.33801772963	1
276	447	0.343652486437	3
276	463	0.343690486437	1
276	473	0.343840546161	3
276	484	0.343886546161	1
276	495	0.343898085167	3
276	511	0.343932085167	1
277	252	0.243299533497	1
277	253	0.243299533497	2
277	259	0.243337533497	1
277	260	0.243337533497	0
277	300	0.243625791211	1
277	301	0.243625791211	2
277	314	0.243659791211	1
277	315	0.243659791211	0
278	0	0	0
278	56	0.143299533497	0
291	0	0	0
292	0	0	0
293	0	0	0
307	244	0.237517510029	1
310	0	0	0
310	0	0	0
310	0	0	0
310	0	0	0
310	0	0	0
310	361	0.337517510029	1
310	363	0.337517510029	0
311	0	0	0
311	0	0	0
311	0	0	0
311	0	0	0
311	0	0	0
311	361	0.337517510029	256
311	363	0.337517510029	0
312	363	0.337517510029	0
313	361	0.337517510029	256
314	361	0.1	0
314	361	0.2	0
314	361	0.3	0
315	363	0.337517510029	256
316	363	0.1	0
316	363	0.2	0
316	363	0.3	0
321	371	0.337555510029	3.8e-05
322	0	0	0
322	0	0	0
322	363	0.337517510029	1
322	371	0.337555510029	0
323	361	0.337517510029	19
324	0	0	0
324	0	0	0
324	361	0.337517510029	1
324	362	0.337517510029	0
325	0	0	0
325	0	0	0
325	22	0.052890203278	0
325	22	0.052890203278	0
325	29	0.052936203278	0
325	29	0.052936203278	0
325	63	0.152890203278	0
325	63	0.152890203278	0
325	70	0.152936203278	0
325	70	0.152936203278	0
325	95	0.181798771811	0
325	95	0.181798771811	0
325	109	0.181836771811	0
325	109	0.181836771811	0
325	119	0.181986880405	0
325	119	0.181986880405	0
325	126	0.182032880405	0
325	126	0.182032880405	0
325	127	0.182032880405	0
325	127	0.182032880405	0
325	158	0.182079333661	0
325	158	0.182079333661	0
325	174	0.215033930572	0
325	174	0.215033930572	0
325	188	0.215071930572	0
325	188	0.215071930572	0
325	198	0.215381936724	0
325	198	0.215381936724	0
325	205	0.215427936724	0
325	205	0.215427936724	0
325	206	0.215427936724	0
325	206	0.215427936724	0
325	237	0.215473468978	0
325	237	0.215473468978	0
325	254	0.243300330848	0
325	254	0.243300330848	0
325	261	0.243338330848	0
325	261	0.243338330848	0
325	281	0.243569373479	0
325	281	0.243569373479	0
325	288	0.243615373479	0
325	288	0.243615373479	0
325	289	0.243615373479	0
325	289	0.243615373479	0
325	317	0.243660588562	0
325	317	0.243660588562	0
325	333	0.252890203278	0
325	333	0.252890203278	0
325	340	0.252936203278	0
325	340	0.252936203278	0
325	361	0.337517510029	0
325	361	0.337517510029	2
325	362	0.337517510029	2
325	362	0.337517510029	0
325	364	0.337517510029	0
325	364	0.337517510029	0
325	372	0.337555510029	0
325	372	0.337555510029	0
325	393	0.337926932279	0
325	393	0.337926932279	0
325	400	0.337972932279	0
325	400	0.337972932279	0
325	412	0.337982932279	0
325	412	0.337982932279	0
325	421	0.338016932279	0
325	421	0.338016932279	0
325	446	0.343651828777	0
325	446	0.343651828777	0
325	460	0.343689828777	0
325	460	0.343689828777	0
325	470	0.343840128429	0
325	470	0.343840128429	0
325	477	0.343886128429	0
325	477	0.343886128429	0
325	478	0.343886128429	0
325	478	0.343886128429	0
325	509	0.343931427507	0
325	509	0.343931427507	0
327	0	0	31
328	371	0.337555510029	32
328	420	0.338016932279	14
329	420	0.338016932279	14
330	371	0.337555510029	32
331	371	0.337555510029	32
333	371	0.337555510029	32
333	420	0.338016932279	14
334	30	0.052936203278	48
334	71	0.152936203278	48
334	110	0.181836771811	32
334	189	0.215071930572	32
334	262	0.243338330848	32
334	341	0.252936203278	48
334	401	0.337972932279	48
334	461	0.343689828777	32
335	401	0.337972932279	48
336	30	0.052936203278	48
336	71	0.152936203278	48
336	110	0.181836771811	32
336	189	0.215071930572	32
336	262	0.243338330848	32
336	341	0.252936203278	48
336	461	0.343689828777	32
337	30	0.052936203278	48
337	71	0.152936203278	48
337	110	0.181836771811	32
337	189	0.215071930572	32
337	262	0.243338330848	32
337	341	0.252936203278	48
337	461	0.343689828777	32
339	30	0.052936203278	48
339	71	0.152936203278	48
339	110	0.181836771811	32
339	189	0.215071930572	32
339	262	0.243338330848	32
339	341	0.252936203278	48
339	401	0.337972932279	48
339	461	0.343689828777	32
340	127	0.182032880405	48
340	159	0.182079333661	14
340	206	0.215427936724	48
340	238	0.215473468978	14
340	289	0.243615373479	48
340	318	0.243660588562	14
340	478	0.343886128429	48
340	510	0.343931427507	14
341	127	0.182032880405	48
341	159	0.182079333661	14
341	206	0.215427936724	48
341	238	0.215473468978	14
341	289	0.243615373479	48
341	318	0.243660588562	14
341	478	0.343886128429	48
341	510	0.343931427507	14
344	0	0	0
344	0	0	0
344	363	0.337517510029	1
344	371	0.337555510029	0
345	363	0.337517510029	24000000
345	401	0.337972932279	24000000
346	127	0.182032880405	0
346	127	0.182032880405	4.4e-05
346	146	0.182076880405	0
346	206	0.215427936724	0
346	206	0.215427936724	4.4e-05
346	225	0.215471936724	0
346	289	0.243615373479	0
346	289	0.243615373479	4.4e-05
346	311	0.243659373479	0
346	478	0.343886128429	0
346	478	0.343886128429	4.4e-05
346	497	0.343930128429	0
348	363	0.337517510029	32
348	411	0.337982932279	14
350	30	0.052936203278	48
350	71	0.152936203278	48
350	110	0.181836771811	32
350	127	0.182032880405	48
350	159	0.182079333661	14
350	189	0.215071930572	32
350	206	0.215427936724	48
350	238	0.215473468978	14
350	262	0.243338330848	32
350	289	0.243615373479	48
350	318	0.243660588562	14
350	341	0.252936203278	48
350	401	0.337972932279	48
350	461	0.343689828777	32
350	478	0.343886128429	48
350	510	0.343931427507	14
351	127	0.182032880405	48
351	159	0.182079333661	14
351	206	0.215427936724	48
351	238	0.215473468978	14
351	289	0.243615373479	48
351	318	0.243660588562	14
351	478	0.343886128429	48
351	510	0.343931427507	14
353	127	0.182032880405	48
353	159	0.182079333661	14
353	206	0.215427936724	48
353	238	0.215473468978	14
353	289	0.243615373479	48
353	318	0.243660588562	14
353	478	0.343886128429	48
353	510	0.343931427507	14
358	0	0	0
358	0	0	0
358	0	0	2
358	364	0.337517510029	3
358	372	0.337555510029	2
358	412	0.337982932279	3
358	421	0.338016932279	2
359	0	0	1
359	22	0.052890203278	3
359	29	0.052936203278	1
359	63	0.152890203278	3
359	70	0.152936203278	1
359	95	0.181798771811	3
359	109	0.181836771811	1
359	119	0.181986880405	3
359	126	0.182032880405	1
359	143	0.182045333661	3
359	158	0.182079333661	1
359	174	0.215033930572	3
359	188	0.215071930572	1
359	198	0.215381936724	3
359	205	0.215427936724	1
359	222	0.215439468978	3
359	237	0.215473468978	1
359	254	0.243300330848	3
359	261	0.243338330848	1
359	281	0.243569373479	3
359	288	0.243615373479	1
359	302	0.243626588562	3
359	317	0.243660588562	1
359	333	0.252890203278	3
359	340	0.252936203278	1
359	364	0.337517510029	0
359	372	0.337555510029	1
359	393	0.337926932279	3
359	400	0.337972932279	1
359	412	0.337982932279	0
359	421	0.338016932279	1
359	446	0.343651828777	3
359	460	0.343689828777	1
359	470	0.343840128429	3
359	477	0.343886128429	1
359	494	0.343897427507	3
359	509	0.343931427507	1
360	364	0.337517510029	1
360	365	0.337517510029	2
360	371	0.337555510029	1
360	372	0.337555510029	0
360	412	0.337982932279	1
360	413	0.337982932279	2
360	420	0.338016932279	1
360	421	0.338016932279	0
361	0	0	0
361	247	0.237517510029	0
374	0	0	0
375	0	0	0
376	0	0	0
390	307	0.243650617939	1
393	0	0	0
393	0	0	0
393	0	0	0
393	0	0	0
393	0	0	0
393	437	0.343650617939	1
393	440	0.343650617939	0
394	0	0	0
394	0	0	0
394	0	0	0
394	0	0	0
394	0	0	0
394	437	0.343650617939	256
394	440	0.343650617939	0
395	440	0.343650617939	0
396	437	0.343650617939	256
397	437	0.1	0
397	437	0.2	0
397	437	0.3	0
398	440	0.343650617939	256
399	440	0.1	0
399	440	0.2	0
399	440	0.3	0
404	448	0.343688617939	3.8e-05
405	0	0	0
405	0	0	0
405	440	0.343650617939	1
405	448	0.343688617939	0
406	437	0.343650617939	19
407	0	0	0
407	0	0	0
407	437	0.343650617939	1
407	438	0.343650617939	0
408	0	0	0
408	0	0	0
408	24	0.052890291518	0
408	24	0.052890291518	0
408	35	0.052936291518	0
408	35	0.052936291518	0
408	65	0.152890291518	0
408	65	0.152890291518	0
408	76	0.152936291518	0
408	76	0.152936291518	0
408	92	0.181797649144	0
408	92	0.181797649144	0
408	99	0.181835649144	0
408	99	0.181835649144	0
408	121	0.181986968645	0
408	121	0.181986968645	0
408	130	0.182032968645	0
408	130	0.182032968645	0
408	131	0.182032968645	0
408	131	0.182032968645	0
408	152	0.182078210994	0
408	152	0.182078210994	0
408	173	0.215033506577	0
408	173	0.215033506577	0
408	185	0.215071506577	0
408	185	0.215071506577	0
408	200	0.215382024964	0
408	200	0.215382024964	0
408	210	0.215428024964	0
408	210	0.215428024964	0
408	211	0.215428024964	0
408	211	0.215428024964	0
408	235	0.215473044983	0
408	235	0.215473044983	0
408	257	0.243301401995	0
408	257	0.243301401995	0
408	271	0.243339401995	0
408	271	0.243339401995	0
408	283	0.243569461719	0
408	283	0.243569461719	0
408	292	0.243615461719	0
408	292	0.243615461719	0
408	293	0.243615461719	0
408	293	0.243615461719	0
408	323	0.243661659709	0
408	323	0.243661659709	0
408	335	0.252890291518	0
408	335	0.252890291518	0
408	346	0.252936291518	0
408	346	0.252936291518	0
408	368	0.337518720867	0
408	368	0.337518720867	0
408	380	0.337556720867	0
408	380	0.337556720867	0
408	395	0.337927020519	0
408	395	0.337927020519	0
408	405	0.337973020519	0
408	405	0.337973020519	0
408	406	0.337973020519	0
408	406	0.337973020519	0
408	430	0.338018143117	0
408	430	0.338018143117	0
408	437	0.343650617939	0
408	437	0.343650617939	2
408	438	0.343650617939	2
408	438	0.343650617939	0
408	441	0.343650617939	0
408	441	0.343650617939	0
408	449	0.343688617939	0
408	449	0.343688617939	0
408	472	0.343840216669	0
408	472	0.343840216669	0
408	481	0.343886216669	0
408	481	0.343886216669	0
408	489	0.343896216669	0
408	489	0.343896216669	0
408	500	0.343930216669	0
408	500	0.343930216669	0
410	0	0	31
411	448	0.343688617939	32
411	499	0.343930216669	14
412	499	0.343930216669	14
413	448	0.343688617939	32
414	448	0.343688617939	32
416	448	0.343688617939	32
416	499	0.343930216669	14
417	36	0.052936291518	48
417	77	0.152936291518	48
417	100	0.181835649144	32
417	186	0.215071506577	32
417	272	0.243339401995	32
417	347	0.252936291518	48
417	381	0.337556720867	32
417	482	0.343886216669	48
418	482	0.343886216669	48
419	36	0.052936291518	48
419	77	0.152936291518	48
419	100	0.181835649144	32
419	186	0.215071506577	32
419	272	0.243339401995	32
419	347	0.252936291518	48
419	381	0.337556720867	32
420	36	0.052936291518	48
420	77	0.152936291518	48
420	100	0.181835649144	32
420	186	0.215071506577	32
420	272	0.243339401995	32
420	347	0.252936291518	48
420	381	0.337556720867	32
422	36	0.052936291518	48
422	77	0.152936291518	48
422	100	0.181835649144	32
422	186	0.215071506577	32
422	272	0.243339401995	32
422	347	0.252936291518	48
422	381	0.337556720867	32
422	482	0.343886216669	48
423	131	0.182032968645	48
423	153	0.182078210994	14
423	211	0.215428024964	48
423	236	0.215473044983	14
423	293	0.243615461719	48
423	324	0.243661659709	14
423	406	0.337973020519	48
423	431	0.338018143117	14
424	131	0.182032968645	48
424	153	0.182078210994	14
424	211	0.215428024964	48
424	236	0.215473044983	14
424	293	0.243615461719	48
424	324	0.243661659709	14
424	406	0.337973020519	48
424	431	0.338018143117	14
427	0	0	0
427	0	0	0
427	440	0.343650617939	1
427	448	0.343688617939	0
428	440	0.343650617939	24000000
428	482	0.343886216669	24000000
429	131	0.182032968645	0
429	131	0.182032968645	4.4e-05
429	148	0.182076968645	0
429	211	0.215428024964	0
429	211	0.215428024964	4.4e-05
429	228	0.215472024964	0
429	293	0.243615461719	0
429	293	0.243615461719	4.4e-05
429	313	0.243659461719	0
429	406	0.337973020519	0
429	406	0.337973020519	4.4e-05
429	423	0.338017020519	0
431	440	0.343650617939	32
431	488	0.343896216669	14
433	36	0.052936291518	48
433	77	0.152936291518	48
433	100	0.181835649144	32
433	131	0.182032968645	48
433	153	0.182078210994	14
433	186	0.215071506577	32
433	211	0.215428024964	48
433	236	0.215473044983	14
433	272	0.243339401995	32
433	293	0.243615461719	48
433	324	0.243661659709	14
433	347	0.252936291518	48
433	381	0.337556720867	32
433	406	0.337973020519	48
433	431	0.338018143117	14
433	482	0.343886216669	48
434	131	0.182032968645	48
434	153	0.182078210994	14
434	211	0.215428024964	48
434	236	0.215473044983	14
434	293	0.243615461719	48
434	324	0.243661659709	14
434	406	0.337973020519	48
434	431	0.338018143117	14
436	131	0.182032968645	48
436	153	0.182078210994	14
436	211	0.215428024964	48
436	236	0.215473044983	14
436	293	0.243615461719	48
436	324	0.243661659709	14
436	406	0.337973020519	48
436	431	0.338018143117	14
441	0	0	0
441	0	0	0
441	0	0	2
441	441	0.343650617939	3
441	449	0.343688617939	2
441	489	0.343896216669	3
441	500	0.343930216669	2
442	0	0	1
442	24	0.052890291518	3
442	35	0.052936291518	1
442	65	0.152890291518	3
442	76	0.152936291518	1
442	92	0.181797649144	3
442	99	0.181835649144	1
442	121	0.181986968645	3
442	130	0.182032968645	1
442	140	0.182044210994	3
442	152	0.182078210994	1
442	173	0.215033506577	3
442	185	0.215071506577	1
442	200	0.215382024964	3
442	210	0.215428024964	1
442	221	0.215439044983	3
442	235	0.215473044983	1
442	257	0.243301401995	3
442	271	0.243339401995	1
442	283	0.243569461719	3
442	292	0.243615461719	1
442	305	0.243627659709	3
442	323	0.243661659709	1
442	335	0.252890291518	3
442	346	0.252936291518	1
442	368	0.337518720867	3
442	380	0.337556720867	1
442	395	0.337927020519	3
442	405	0.337973020519	1
442	416	0.337984143117	3
442	430	0.338018143117	1
442	441	0.343650617939	0
442	449	0.343688617939	1
442	472	0.343840216669	3
442	481	0.343886216669	1
442	489	0.343896216669	0
442	500	0.343930216669	1
443	441	0.343650617939	1
443	442	0.343650617939	2
443	448	0.343688617939	1
443	449	0.343688617939	0
443	489	0.343896216669	1
443	490	0.343896216669	2
443	499	0.343930216669	1
443	500	0.343930216669	0
444	0	0	0
444	439	0.343650617939	0
457	0	0	0
458	0	0	0
459	0	0	0

