version 3
run Wireless01-0-20241219-00:13:22-18560
attr configname Wireless01
attr datetime 20241219-00:13:22
attr datetimef 20241219-001322
attr experiment Wireless01
attr inifile omnetpp.ini
attr iterationvars ""
attr iterationvarsd ""
attr iterationvarsf ""
attr measurement ""
attr network Smarthome
attr processid 18560
attr repetition 0
attr replication #0
attr resultdir results
attr runnumber 0
attr seedset 0
config image-path ../../inet4.5/images
config description "Setting up two-way communication between hosts and smart devices"
config network Smarthome
config sim-time-limit 200s
config *.wlan[].typename Ieee80211Interface
config *.wlan[].radio.typename Ieee80211ScalarRadio
config *.wlan[].mac.typename Ieee80211Mac
config *.wlan[].agent.typename Ieee80211AgentSta
config *.wlan[].mgmt.typename Ieee80211MgmtSta
config *.accessPoint.wlan[].mgmt.typename Ieee80211MgmtAp
config *.accessPoint.wlan[].agent.typename ""
config *.accessPoint.wlan[].mac.address "\"00:00:00:00:00:01\""
config *.accessPoint.wlan[].mac.queue.typename EtherQosQueue
config *.accessPoint.wlan[].mac.queue.dataQueue.typename DropTailQueue
config *.accessPoint.wlan[].mac.queue.dataQueue.packetCapacity 50
config *.wlan[].radio.transmitter.power 100mW
config *.wlan[].radio.receiver.sensitivity -85dBm
config *.wlan[].radio.receiver.snirThreshold 4dB
config **.mobility.initialX "uniform(0m, 50m)"
config **.mobility.initialY "uniform(0m, 50m)"
config **.mobility.initialZ 1.5m
config *.smartphone.wlan[].mac.address "\"00:00:00:00:00:02\""
config *.smartLight.wlan[].mac.address "\"00:00:00:00:00:03\""
config *.smartThermostat.wlan[].mac.address "\"00:00:00:00:00:04\""
config *.smartTV.wlan[].mac.address "\"00:00:00:00:00:05\""
config *.securityCamera.wlan[].mac.address "\"00:00:00:00:00:06\""
config **.smartphone.numApps 1
config **.smartphone.app[0].typename UdpBasicApp
config **.smartphone.app[0].destAddresses "\"smartLight\""
config **.smartphone.app[0].destPort 5000
config **.smartphone.app[0].messageLength 1000B
config **.smartphone.app[0].sendInterval exponential(1s)
config **.smartLight.numApps 1
config **.smartLight.app[0].typename UdpSink
config **.smartLight.app[0].localPort 5000
config **.smartThermostat.numApps 1
config **.smartThermostat.app[0].typename UdpBasicApp
config **.smartThermostat.app[0].destAddresses "\"securityCamera\""
config **.smartThermostat.app[0].destPort 6000
config **.smartThermostat.app[0].messageLength 500B
config **.smartThermostat.app[0].sendInterval "uniform(0.5s, 2s)"
config **.securityCamera.numApps 1
config **.securityCamera.app[0].typename UdpSink
config **.securityCamera.app[0].localPort 6000
config .visualizer..interfaceTableVisualizer.displayInterfaceTables true
config .visualizer..mobilityVisualizer.displayVelocities true
config .visualizer..mobilityVisualizer.displayOrientations true
config *.visualizer.packetVisualizer.displayPackets true

vector 0 Smarthome.accessPoint.wlan[0].mac.dcf.channelAccess.pendingQueue queueLength:vector ETV
attr autoWarmupFilter false
attr interpolationmode sample-hold
attr recordingmode vector
attr source "warmup(atomic(constant0(packetPushEnded) + count(packetPushStarted) - count(packetPulled) - count(packetRemoved) - count(packetDropped)))"
attr title "queue length"
attr unit pk
vector 1 Smarthome.accessPoint.wlan[0].mac.dcf.channelAccess.pendingQueue queueBitLength:vector ETV
attr autoWarmupFilter false
attr interpolationmode sample-hold
attr recordingmode vector
attr source "warmup(atomic(constant0(packetPushEnded) + sum(packetLength(packetPushStarted)) - sum(packetLength(packetPulled)) - sum(packetLength(packetRemoved)) - sum(packetLength(packetDropped))))"
attr title "queue bit length"
attr unit b
vector 2 Smarthome.accessPoint.wlan[0].mac.dcf.channelAccess.pendingQueue queueingTime:vector ETV
attr interpolationmode none
attr recordingmode vector
attr source queueingTime(packetPulled)
attr title "queueing times"
attr unit s
vector 3 Smarthome.accessPoint.wlan[0].mac.dcf.channelAccess.pendingQueue incomingPacketLengths:vector ETV
attr interpolationmode none
attr recordingmode vector
attr source packetLength(packetPushStarted)
attr title "incoming packet lengths"
attr unit b
vector 4 Smarthome.accessPoint.wlan[0].mac.dcf.channelAccess.pendingQueue incomingDataRate:vector ETV
attr interpolationmode linear
attr recordingmode vector
attr source throughput(packetPushStarted)
attr title "incoming datarate"
attr unit bps
vector 5 Smarthome.accessPoint.wlan[0].mac.dcf.channelAccess.pendingQueue outgoingPacketLengths:vector ETV
attr interpolationmode none
attr recordingmode vector
attr source packetLength(packetPulled)
attr title "outgoing packet lengths"
attr unit b
vector 6 Smarthome.accessPoint.wlan[0].mac.dcf.channelAccess.pendingQueue outgoingDataRate:vector ETV
attr interpolationmode linear
attr recordingmode vector
attr source throughput(packetPulled)
attr title "outgoing datarate"
attr unit bps
vector 7 Smarthome.accessPoint.wlan[0].mac.dcf.channelAccess.pendingQueue droppedPacketLengthsQueueOverflow:vector ETV
attr interpolationmode none
attr recordingmode vector
attr source packetLength(packetDropReasonIsQueueOverflow(packetDropped))
attr title "dropped packet lengths: queue overflow"
attr unit b
vector 8 Smarthome.accessPoint.wlan[0].mac.dcf.channelAccess.pendingQueue flowQueueingTime:vector ETV
attr interpolationmode none
attr recordingmode vector
attr source queueingTime(demuxFlow(packetPulled))
attr title "flow queueing times"
attr unit s
vector 9 Smarthome.accessPoint.wlan[0].mac.dcf.channelAccess.pendingQueue flowIncomingDataRate:vector ETV
attr interpolationmode linear
attr recordingmode vector
attr source throughput(flowPacketLength(demuxFlow(packetPushStarted)))
attr title "flow specific incoming data rate"
attr unit bps
vector 10 Smarthome.accessPoint.wlan[0].mac.dcf.channelAccess.pendingQueue flowOutgoingDataRate:vector ETV
attr interpolationmode linear
attr recordingmode vector
attr source throughput(flowPacketLength(demuxFlow(packetPulled)))
attr title "flow specific outgoing data rate"
attr unit bps
vector 11 Smarthome.accessPoint.wlan[0].mac.dcf.channelAccess.inProgressFrames queueingTime:vector ETV
attr interpolationmode none
attr recordingmode vector
attr source queueingTime(packetDequeued)
attr title "queueing times"
vector 12 Smarthome.accessPoint.wlan[0].mac.dcf.channelAccess.inProgressFrames queueLength:vector ETV
attr autoWarmupFilter false
attr interpolationmode sample-hold
attr recordingmode vector
attr source "warmup(count(packetEnqueued) - count(packetDequeued))"
attr title "queue length"
vector 13 Smarthome.accessPoint.wlan[0].mac.dcf.channelAccess.contention backoffPeriodGenerated:vector ETV
attr interpolationmode none
attr recordingmode vector
attr title "backoff periods"
vector 14 Smarthome.accessPoint.wlan[0].mac.dcf.channelAccess.contention backoffActive:vector ETV
attr autoWarmupFilter false
attr interpolationmode sample-hold
attr recordingmode vector
attr source warmup(count(backoffStarted)-count(backoffStopped))
attr title "backoff active"
vector 15 Smarthome.accessPoint.wlan[0].mac.dcf.channelAccess.contention stateChanged:vector ETV
attr enum IDLE,DEFER,IFS_AND_BACKOFF
attr interpolationmode none
attr recordingmode vector
attr title "contention state changed"
attr type enum
vector 16 Smarthome.accessPoint.wlan[0].mac.dcf.recipientMacDataService packetDropDuplicateDetected:vector(packetBytes) ETV
attr interpolationmode none
attr recordingmode vector(packetBytes)
attr source packetDropReasonIsDuplicateDetected(packetDropped)
attr title "packet drops: duplicate detected, packetBytes"
vector 17 Smarthome.accessPoint.wlan[0].mac.dcf.recoveryProcedure contentionWindowChanged:vector ETV
attr interpolationmode sample-hold
attr recordingmode vector
attr title "contention window"
vector 18 Smarthome.accessPoint.wlan[0].mac.dcf packetSentToPeer:vector(packetBytes) ETV
attr interpolationmode none
attr recordingmode vector(packetBytes)
attr title "packets sent, packetBytes"
vector 19 Smarthome.accessPoint.wlan[0].mac.dcf packetSentToPeerUnicast:vector(packetBytes) ETV
attr interpolationmode none
attr recordingmode vector(packetBytes)
attr source ieee80211Unicast(packetSentToPeer)
attr title "packets sent: unicast, packetBytes"
vector 20 Smarthome.accessPoint.wlan[0].mac.dcf packetSentToPeerMulticast:vector(packetBytes) ETV
attr interpolationmode none
attr recordingmode vector(packetBytes)
attr source ieee80211Multicast(packetSentToPeer)
attr title "packets sent: multicast, packetBytes"
vector 21 Smarthome.accessPoint.wlan[0].mac.dcf packetSentToPeerBroadcast:vector(packetBytes) ETV
attr interpolationmode none
attr recordingmode vector(packetBytes)
attr source ieee80211Broadcast(packetSentToPeer)
attr title "packets sent: broadcast , packetBytes"
vector 22 Smarthome.accessPoint.wlan[0].mac.dcf packetSentToPeerWithRetry:vector(packetBytes) ETV
attr interpolationmode none
attr recordingmode vector(packetBytes)
attr source ieee80211Retry(packetSentToPeer)
attr title "packets sent: with retry, packetBytes"
vector 23 Smarthome.accessPoint.wlan[0].mac.dcf packetSentToPeerWithoutRetry:vector(packetBytes) ETV
attr interpolationmode none
attr recordingmode vector(packetBytes)
attr source ieee80211NotRetry(packetSentToPeer)
attr title "packets sent: without retry, packetBytes"
vector 24 Smarthome.accessPoint.wlan[0].mac.dcf packetReceivedFromPeer:vector(packetBytes) ETV
attr interpolationmode none
attr recordingmode vector(packetBytes)
attr title "packets received, packetBytes"
vector 25 Smarthome.accessPoint.wlan[0].mac.dcf packetReceivedFromPeerUnicast:vector(packetBytes) ETV
attr interpolationmode none
attr recordingmode vector(packetBytes)
attr source ieee80211Unicast(packetReceivedFromPeer)
attr title "packets received: unicast, packetBytes"
vector 26 Smarthome.accessPoint.wlan[0].mac.dcf packetReceivedFromPeerMulticast:vector(packetBytes) ETV
attr interpolationmode none
attr recordingmode vector(packetBytes)
attr source ieee80211Multicast(packetReceivedFromPeer)
attr title "packets received: multicast, packetBytes"
vector 27 Smarthome.accessPoint.wlan[0].mac.dcf packetReceivedFromPeerBroadcast:vector(packetBytes) ETV
attr interpolationmode none
attr recordingmode vector(packetBytes)
attr source ieee80211Broadcast(packetReceivedFromPeer)
attr title "packets received: broadcast, packetBytes"
vector 28 Smarthome.accessPoint.wlan[0].mac.dcf packetReceivedFromPeerWithRetry:vector(packetBytes) ETV
attr interpolationmode none
attr recordingmode vector(packetBytes)
attr source ieee80211Retry(packetReceivedFromPeer)
attr title "packets received: with retry, packetBytes"
vector 29 Smarthome.accessPoint.wlan[0].mac.dcf packetReceivedFromPeerWithoutRetry:vector(packetBytes) ETV
attr interpolationmode none
attr recordingmode vector(packetBytes)
attr source ieee80211NotRetry(packetReceivedFromPeer)
attr title "packets received: without retry, packetBytes"
vector 30 Smarthome.accessPoint.wlan[0].mac.dcf packetDrop:vector(packetBytes) ETV
attr interpolationmode none
attr recordingmode vector(packetBytes)
attr source packetDropped
attr title "packet drops, packetBytes"
vector 31 Smarthome.accessPoint.wlan[0].mac.dcf packetDropNotAddressedToUs:vector(packetBytes) ETV
attr interpolationmode none
attr recordingmode vector(packetBytes)
attr source packetDropReasonIsNotAddressedToUs(packetDropped)
attr title "packet drops: not addressed to us, packetBytes"
vector 32 Smarthome.accessPoint.wlan[0].mac.dcf packetDropQueueOverflow:vector(packetBytes) ETV
attr interpolationmode none
attr recordingmode vector(packetBytes)
attr source packetDropReasonIsQueueOverflow(packetDropped)
attr title "packet drops: queue overflow, packetBytes"
vector 33 Smarthome.accessPoint.wlan[0].mac.dcf packetDropRetryLimitReached:vector(packetBytes) ETV
attr interpolationmode none
attr recordingmode vector(packetBytes)
attr source packetDropReasonIsRetryLimitReached(packetDropped)
attr title "packet drops: retry limit reached, packetBytes"
vector 34 Smarthome.accessPoint.wlan[0].mac.dcf frameSequenceActive:vector ETV
attr autoWarmupFilter false
attr interpolationmode sample-hold
attr recordingmode vector
attr source warmup(count(frameSequenceStarted)-count(frameSequenceFinished))
attr title "frame sequence active"
vector 35 Smarthome.accessPoint.wlan[0].mac.dcf datarateSelected:vector ETV
attr interpolationmode none
attr recordingmode vector
attr title "datarates selected"
vector 36 Smarthome.accessPoint.wlan[0].mac.rx nav:vector ETV
attr interpolationmode linear
attr recordingmode vector
attr source navChanged
attr title "network allocation vector"
vector 37 Smarthome.accessPoint.wlan[0].mac packetSentToUpper:vector(packetBytes) ETV
attr interpolationmode none
attr recordingmode vector(packetBytes)
attr title "packets sent to upper layer, packetBytes"
vector 38 Smarthome.accessPoint.wlan[0].mac packetSentToLower:vector(packetBytes) ETV
attr interpolationmode none
attr recordingmode vector(packetBytes)
attr title "packets sent to lower layer, packetBytes"
vector 39 Smarthome.accessPoint.wlan[0].mac packetReceivedFromUpper:vector(packetBytes) ETV
attr interpolationmode none
attr recordingmode vector(packetBytes)
attr title "packets received from upper layer, packetBytes"
vector 40 Smarthome.accessPoint.wlan[0].mac packetReceivedFromLower:vector(packetBytes) ETV
attr interpolationmode none
attr recordingmode vector(packetBytes)
attr title "packets received from lower layer, packetBytes"
vector 41 Smarthome.accessPoint.wlan[0].mac packetDrop:vector(packetBytes) ETV
attr interpolationmode none
attr recordingmode vector(packetBytes)
attr source packetDropped
attr title "packet drops, packetBytes"
vector 42 Smarthome.accessPoint.wlan[0].mac packetDropIncorrectlyReceived:vector(packetBytes) ETV
attr interpolationmode none
attr recordingmode vector(packetBytes)
attr source packetDropReasonIsIncorrectlyReceived(packetDropped)
attr title "packet drops: incorrectly received, packetBytes"
vector 43 Smarthome.accessPoint.wlan[0].mac packetDropNotAddressedToUs:vector(packetBytes) ETV
attr interpolationmode none
attr recordingmode vector(packetBytes)
attr source packetDropReasonIsNotAddressedToUs(packetDropped)
attr title "packet drops: not addressed to us, packetBytes"
vector 44 Smarthome.accessPoint.wlan[0].mac packetDropQueueOverflow:vector(packetBytes) ETV
attr interpolationmode none
attr recordingmode vector(packetBytes)
attr source packetDropReasonIsQueueOverflow(packetDropped)
attr title "packet drops: queue overflow, packetBytes"
vector 45 Smarthome.accessPoint.wlan[0].mac packetDropRetryLimitReached:vector(packetBytes) ETV
attr interpolationmode none
attr recordingmode vector(packetBytes)
attr source packetDropReasonIsRetryLimitReached(packetDropped)
attr title "packet drops: retry limit reached, packetBytes"
vector 46 Smarthome.accessPoint.wlan[0].mac packetDropDuplicateDetected:vector(packetBytes) ETV
attr interpolationmode none
attr recordingmode vector(packetBytes)
attr source packetDropReasonIsDuplicateDetected(packetDropped)
attr title "packet drops: duplicate detected, packetBytes"
vector 47 Smarthome.accessPoint.wlan[0].mac packetDropOther:vector(packetBytes) ETV
attr interpolationmode none
attr recordingmode vector(packetBytes)
attr source packetDropReasonIsOther(packetDropped)
attr title "packet drops: other, packetBytes"
vector 48 Smarthome.accessPoint.wlan[0].radio radioMode:vector ETV
attr interpolationmode sample-hold
attr recordingmode vector
attr source radioModeChanged
attr title "Radio mode"
vector 49 Smarthome.accessPoint.wlan[0].radio receptionState:vector ETV
attr interpolationmode sample-hold
attr recordingmode vector
attr source receptionStateChanged
attr title "Radio reception state"
vector 50 Smarthome.accessPoint.wlan[0].radio transmissionState:vector ETV
attr interpolationmode sample-hold
attr recordingmode vector
attr source transmissionStateChanged
attr title "Radio transmission state"
vector 51 Smarthome.accessPoint.wlan[0].radio radioChannel:vector ETV
attr interpolationmode sample-hold
attr recordingmode vector
attr source radioChannelChanged
attr title "Radio channel"
vector 52 Smarthome.accessPoint.wlan[0] packetDropInterfaceDown:vector(packetBytes) ETV
attr interpolationmode none
attr recordingmode vector(packetBytes)
attr source packetDropReasonIsInterfaceDown(packetDropped)
attr title "packet drops: interface down, packetBytes"
vector 53 Smarthome.accessPoint.wlan[0] packetDropNoCarrier:vector(packetBytes) ETV
attr interpolationmode none
attr recordingmode vector(packetBytes)
attr source packetDropReasonIsNoCarrier(packetDropped)
attr title "packet drops: no carrier, packetBytes"
vector 54 Smarthome.smartphone.lo[0].lo rcvdPkFromHl:vector(packetBytes) ETV
attr interpolationmode none
attr recordingmode vector(packetBytes)
attr source packetReceivedFromUpper
attr title "packets received from higher layer, packetBytes"
vector 55 Smarthome.smartphone.lo[0].lo passedUpPk:vector(packetBytes) ETV
attr interpolationmode none
attr recordingmode vector(packetBytes)
attr source packetSentToUpper
attr title "packets passed to higher layer, packetBytes"
vector 56 Smarthome.smartphone.lo[0] packetDropInterfaceDown:vector(packetBytes) ETV
attr interpolationmode none
attr recordingmode vector(packetBytes)
attr source packetDropReasonIsInterfaceDown(packetDropped)
attr title "packet drops: interface down, packetBytes"
vector 57 Smarthome.smartphone.lo[0] packetDropNoCarrier:vector(packetBytes) ETV
attr interpolationmode none
attr recordingmode vector(packetBytes)
attr source packetDropReasonIsNoCarrier(packetDropped)
attr title "packet drops: no carrier, packetBytes"
vector 58 Smarthome.smartphone.wlan[0].agent sentRequest:vector ETV
attr recordingmode vector
attr title "sent requests"
vector 59 Smarthome.smartphone.wlan[0].agent acceptConfirm:vector ETV
attr recordingmode vector
attr title "accepted confirms"
vector 60 Smarthome.smartphone.wlan[0].agent dropConfirm:vector ETV
attr recordingmode vector
attr title "dropped confirms"
vector 61 Smarthome.smartphone.wlan[0].mac.dcf.channelAccess.pendingQueue queueLength:vector ETV
attr autoWarmupFilter false
attr interpolationmode sample-hold
attr recordingmode vector
attr source "warmup(atomic(constant0(packetPushEnded) + count(packetPushStarted) - count(packetPulled) - count(packetRemoved) - count(packetDropped)))"
attr title "queue length"
attr unit pk
vector 62 Smarthome.smartphone.wlan[0].mac.dcf.channelAccess.pendingQueue queueBitLength:vector ETV
attr autoWarmupFilter false
attr interpolationmode sample-hold
attr recordingmode vector
attr source "warmup(atomic(constant0(packetPushEnded) + sum(packetLength(packetPushStarted)) - sum(packetLength(packetPulled)) - sum(packetLength(packetRemoved)) - sum(packetLength(packetDropped))))"
attr title "queue bit length"
attr unit b
vector 63 Smarthome.smartphone.wlan[0].mac.dcf.channelAccess.pendingQueue queueingTime:vector ETV
attr interpolationmode none
attr recordingmode vector
attr source queueingTime(packetPulled)
attr title "queueing times"
attr unit s
vector 64 Smarthome.smartphone.wlan[0].mac.dcf.channelAccess.pendingQueue incomingPacketLengths:vector ETV
attr interpolationmode none
attr recordingmode vector
attr source packetLength(packetPushStarted)
attr title "incoming packet lengths"
attr unit b
vector 65 Smarthome.smartphone.wlan[0].mac.dcf.channelAccess.pendingQueue incomingDataRate:vector ETV
attr interpolationmode linear
attr recordingmode vector
attr source throughput(packetPushStarted)
attr title "incoming datarate"
attr unit bps
vector 66 Smarthome.smartphone.wlan[0].mac.dcf.channelAccess.pendingQueue outgoingPacketLengths:vector ETV
attr interpolationmode none
attr recordingmode vector
attr source packetLength(packetPulled)
attr title "outgoing packet lengths"
attr unit b
vector 67 Smarthome.smartphone.wlan[0].mac.dcf.channelAccess.pendingQueue outgoingDataRate:vector ETV
attr interpolationmode linear
attr recordingmode vector
attr source throughput(packetPulled)
attr title "outgoing datarate"
attr unit bps
vector 68 Smarthome.smartphone.wlan[0].mac.dcf.channelAccess.pendingQueue droppedPacketLengthsQueueOverflow:vector ETV
attr interpolationmode none
attr recordingmode vector
attr source packetLength(packetDropReasonIsQueueOverflow(packetDropped))
attr title "dropped packet lengths: queue overflow"
attr unit b
vector 69 Smarthome.smartphone.wlan[0].mac.dcf.channelAccess.pendingQueue flowQueueingTime:vector ETV
attr interpolationmode none
attr recordingmode vector
attr source queueingTime(demuxFlow(packetPulled))
attr title "flow queueing times"
attr unit s
vector 70 Smarthome.smartphone.wlan[0].mac.dcf.channelAccess.pendingQueue flowIncomingDataRate:vector ETV
attr interpolationmode linear
attr recordingmode vector
attr source throughput(flowPacketLength(demuxFlow(packetPushStarted)))
attr title "flow specific incoming data rate"
attr unit bps
vector 71 Smarthome.smartphone.wlan[0].mac.dcf.channelAccess.pendingQueue flowOutgoingDataRate:vector ETV
attr interpolationmode linear
attr recordingmode vector
attr source throughput(flowPacketLength(demuxFlow(packetPulled)))
attr title "flow specific outgoing data rate"
attr unit bps
vector 72 Smarthome.smartphone.wlan[0].mac.dcf.channelAccess.inProgressFrames queueingTime:vector ETV
attr interpolationmode none
attr recordingmode vector
attr source queueingTime(packetDequeued)
attr title "queueing times"
vector 73 Smarthome.smartphone.wlan[0].mac.dcf.channelAccess.inProgressFrames queueLength:vector ETV
attr autoWarmupFilter false
attr interpolationmode sample-hold
attr recordingmode vector
attr source "warmup(count(packetEnqueued) - count(packetDequeued))"
attr title "queue length"
vector 74 Smarthome.smartphone.wlan[0].mac.dcf.channelAccess.contention backoffPeriodGenerated:vector ETV
attr interpolationmode none
attr recordingmode vector
attr title "backoff periods"
vector 75 Smarthome.smartphone.wlan[0].mac.dcf.channelAccess.contention backoffActive:vector ETV
attr autoWarmupFilter false
attr interpolationmode sample-hold
attr recordingmode vector
attr source warmup(count(backoffStarted)-count(backoffStopped))
attr title "backoff active"
vector 76 Smarthome.smartphone.wlan[0].mac.dcf.channelAccess.contention stateChanged:vector ETV
attr enum IDLE,DEFER,IFS_AND_BACKOFF
attr interpolationmode none
attr recordingmode vector
attr title "contention state changed"
attr type enum
vector 77 Smarthome.smartphone.wlan[0].mac.dcf.recipientMacDataService packetDropDuplicateDetected:vector(packetBytes) ETV
attr interpolationmode none
attr recordingmode vector(packetBytes)
attr source packetDropReasonIsDuplicateDetected(packetDropped)
attr title "packet drops: duplicate detected, packetBytes"
vector 78 Smarthome.smartphone.wlan[0].mac.dcf.recoveryProcedure contentionWindowChanged:vector ETV
attr interpolationmode sample-hold
attr recordingmode vector
attr title "contention window"
vector 79 Smarthome.smartphone.wlan[0].mac.dcf packetSentToPeer:vector(packetBytes) ETV
attr interpolationmode none
attr recordingmode vector(packetBytes)
attr title "packets sent, packetBytes"
vector 80 Smarthome.smartphone.wlan[0].mac.dcf packetSentToPeerUnicast:vector(packetBytes) ETV
attr interpolationmode none
attr recordingmode vector(packetBytes)
attr source ieee80211Unicast(packetSentToPeer)
attr title "packets sent: unicast, packetBytes"
vector 81 Smarthome.smartphone.wlan[0].mac.dcf packetSentToPeerMulticast:vector(packetBytes) ETV
attr interpolationmode none
attr recordingmode vector(packetBytes)
attr source ieee80211Multicast(packetSentToPeer)
attr title "packets sent: multicast, packetBytes"
vector 82 Smarthome.smartphone.wlan[0].mac.dcf packetSentToPeerBroadcast:vector(packetBytes) ETV
attr interpolationmode none
attr recordingmode vector(packetBytes)
attr source ieee80211Broadcast(packetSentToPeer)
attr title "packets sent: broadcast , packetBytes"
vector 83 Smarthome.smartphone.wlan[0].mac.dcf packetSentToPeerWithRetry:vector(packetBytes) ETV
attr interpolationmode none
attr recordingmode vector(packetBytes)
attr source ieee80211Retry(packetSentToPeer)
attr title "packets sent: with retry, packetBytes"
vector 84 Smarthome.smartphone.wlan[0].mac.dcf packetSentToPeerWithoutRetry:vector(packetBytes) ETV
attr interpolationmode none
attr recordingmode vector(packetBytes)
attr source ieee80211NotRetry(packetSentToPeer)
attr title "packets sent: without retry, packetBytes"
vector 85 Smarthome.smartphone.wlan[0].mac.dcf packetReceivedFromPeer:vector(packetBytes) ETV
attr interpolationmode none
attr recordingmode vector(packetBytes)
attr title "packets received, packetBytes"
vector 86 Smarthome.smartphone.wlan[0].mac.dcf packetReceivedFromPeerUnicast:vector(packetBytes) ETV
attr interpolationmode none
attr recordingmode vector(packetBytes)
attr source ieee80211Unicast(packetReceivedFromPeer)
attr title "packets received: unicast, packetBytes"
vector 87 Smarthome.smartphone.wlan[0].mac.dcf packetReceivedFromPeerMulticast:vector(packetBytes) ETV
attr interpolationmode none
attr recordingmode vector(packetBytes)
attr source ieee80211Multicast(packetReceivedFromPeer)
attr title "packets received: multicast, packetBytes"
vector 88 Smarthome.smartphone.wlan[0].mac.dcf packetReceivedFromPeerBroadcast:vector(packetBytes) ETV
attr interpolationmode none
attr recordingmode vector(packetBytes)
attr source ieee80211Broadcast(packetReceivedFromPeer)
attr title "packets received: broadcast, packetBytes"
vector 89 Smarthome.smartphone.wlan[0].mac.dcf packetReceivedFromPeerWithRetry:vector(packetBytes) ETV
attr interpolationmode none
attr recordingmode vector(packetBytes)
attr source ieee80211Retry(packetReceivedFromPeer)
attr title "packets received: with retry, packetBytes"
vector 90 Smarthome.smartphone.wlan[0].mac.dcf packetReceivedFromPeerWithoutRetry:vector(packetBytes) ETV
attr interpolationmode none
attr recordingmode vector(packetBytes)
attr source ieee80211NotRetry(packetReceivedFromPeer)
attr title "packets received: without retry, packetBytes"
vector 91 Smarthome.smartphone.wlan[0].mac.dcf packetDrop:vector(packetBytes) ETV
attr interpolationmode none
attr recordingmode vector(packetBytes)
attr source packetDropped
attr title "packet drops, packetBytes"
vector 92 Smarthome.smartphone.wlan[0].mac.dcf packetDropNotAddressedToUs:vector(packetBytes) ETV
attr interpolationmode none
attr recordingmode vector(packetBytes)
attr source packetDropReasonIsNotAddressedToUs(packetDropped)
attr title "packet drops: not addressed to us, packetBytes"
vector 93 Smarthome.smartphone.wlan[0].mac.dcf packetDropQueueOverflow:vector(packetBytes) ETV
attr interpolationmode none
attr recordingmode vector(packetBytes)
attr source packetDropReasonIsQueueOverflow(packetDropped)
attr title "packet drops: queue overflow, packetBytes"
vector 94 Smarthome.smartphone.wlan[0].mac.dcf packetDropRetryLimitReached:vector(packetBytes) ETV
attr interpolationmode none
attr recordingmode vector(packetBytes)
attr source packetDropReasonIsRetryLimitReached(packetDropped)
attr title "packet drops: retry limit reached, packetBytes"
vector 95 Smarthome.smartphone.wlan[0].mac.dcf frameSequenceActive:vector ETV
attr autoWarmupFilter false
attr interpolationmode sample-hold
attr recordingmode vector
attr source warmup(count(frameSequenceStarted)-count(frameSequenceFinished))
attr title "frame sequence active"
vector 96 Smarthome.smartphone.wlan[0].mac.dcf datarateSelected:vector ETV
attr interpolationmode none
attr recordingmode vector
attr title "datarates selected"
vector 97 Smarthome.smartphone.wlan[0].mac.rx nav:vector ETV
attr interpolationmode linear
attr recordingmode vector
attr source navChanged
attr title "network allocation vector"
vector 98 Smarthome.smartphone.wlan[0].mac packetSentToUpper:vector(packetBytes) ETV
attr interpolationmode none
attr recordingmode vector(packetBytes)
attr title "packets sent to upper layer, packetBytes"
vector 99 Smarthome.smartphone.wlan[0].mac packetSentToLower:vector(packetBytes) ETV
attr interpolationmode none
attr recordingmode vector(packetBytes)
attr title "packets sent to lower layer, packetBytes"
vector 100 Smarthome.smartphone.wlan[0].mac packetReceivedFromUpper:vector(packetBytes) ETV
attr interpolationmode none
attr recordingmode vector(packetBytes)
attr title "packets received from upper layer, packetBytes"
vector 101 Smarthome.smartphone.wlan[0].mac packetReceivedFromLower:vector(packetBytes) ETV
attr interpolationmode none
attr recordingmode vector(packetBytes)
attr title "packets received from lower layer, packetBytes"
vector 102 Smarthome.smartphone.wlan[0].mac packetDrop:vector(packetBytes) ETV
attr interpolationmode none
attr recordingmode vector(packetBytes)
attr source packetDropped
attr title "packet drops, packetBytes"
vector 103 Smarthome.smartphone.wlan[0].mac packetDropIncorrectlyReceived:vector(packetBytes) ETV
attr interpolationmode none
attr recordingmode vector(packetBytes)
attr source packetDropReasonIsIncorrectlyReceived(packetDropped)
attr title "packet drops: incorrectly received, packetBytes"
vector 104 Smarthome.smartphone.wlan[0].mac packetDropNotAddressedToUs:vector(packetBytes) ETV
attr interpolationmode none
attr recordingmode vector(packetBytes)
attr source packetDropReasonIsNotAddressedToUs(packetDropped)
attr title "packet drops: not addressed to us, packetBytes"
vector 105 Smarthome.smartphone.wlan[0].mac packetDropQueueOverflow:vector(packetBytes) ETV
attr interpolationmode none
attr recordingmode vector(packetBytes)
attr source packetDropReasonIsQueueOverflow(packetDropped)
attr title "packet drops: queue overflow, packetBytes"
vector 106 Smarthome.smartphone.wlan[0].mac packetDropRetryLimitReached:vector(packetBytes) ETV
attr interpolationmode none
attr recordingmode vector(packetBytes)
attr source packetDropReasonIsRetryLimitReached(packetDropped)
attr title "packet drops: retry limit reached, packetBytes"
vector 107 Smarthome.smartphone.wlan[0].mac packetDropDuplicateDetected:vector(packetBytes) ETV
attr interpolationmode none
attr recordingmode vector(packetBytes)
attr source packetDropReasonIsDuplicateDetected(packetDropped)
attr title "packet drops: duplicate detected, packetBytes"
vector 108 Smarthome.smartphone.wlan[0].mac packetDropOther:vector(packetBytes) ETV
attr interpolationmode none
attr recordingmode vector(packetBytes)
attr source packetDropReasonIsOther(packetDropped)
attr title "packet drops: other, packetBytes"
vector 109 Smarthome.smartphone.wlan[0].radio radioMode:vector ETV
attr interpolationmode sample-hold
attr recordingmode vector
attr source radioModeChanged
attr title "Radio mode"
vector 110 Smarthome.smartphone.wlan[0].radio receptionState:vector ETV
attr interpolationmode sample-hold
attr recordingmode vector
attr source receptionStateChanged
attr title "Radio reception state"
vector 111 Smarthome.smartphone.wlan[0].radio transmissionState:vector ETV
attr interpolationmode sample-hold
attr recordingmode vector
attr source transmissionStateChanged
attr title "Radio transmission state"
vector 112 Smarthome.smartphone.wlan[0].radio radioChannel:vector ETV
attr interpolationmode sample-hold
attr recordingmode vector
attr source radioChannelChanged
attr title "Radio channel"
vector 113 Smarthome.smartphone.wlan[0] packetDropInterfaceDown:vector(packetBytes) ETV
attr interpolationmode none
attr recordingmode vector(packetBytes)
attr source packetDropReasonIsInterfaceDown(packetDropped)
attr title "packet drops: interface down, packetBytes"
vector 114 Smarthome.smartphone.wlan[0] packetDropNoCarrier:vector(packetBytes) ETV
attr interpolationmode none
attr recordingmode vector(packetBytes)
attr source packetDropReasonIsNoCarrier(packetDropped)
attr title "packet drops: no carrier, packetBytes"
vector 115 Smarthome.smartphone.ipv4.ip packetDropAddressResolutionFailed:vector(packetBytes) ETV
attr interpolationmode none
attr recordingmode vector(packetBytes)
attr source packetDropReasonIsAddressResolutionFailed(packetDropped)
attr title "packet drop: address resolution failed, packetBytes"
vector 116 Smarthome.smartphone.ipv4.ip packetDropHopLimitReached:vector(packetBytes) ETV
attr interpolationmode none
attr recordingmode vector(packetBytes)
attr source packetDropReasonIsHopLimitReached(packetDropped)
attr title "packet drop: hop limit reached, packetBytes"
vector 117 Smarthome.smartphone.ipv4.ip packetDropForwardingDisabled:vector(packetBytes) ETV
attr interpolationmode none
attr recordingmode vector(packetBytes)
attr source packetDropReasonIsForwardingDisabled(packetDropped)
attr title "packet drop: forwarding disabled, packetBytes"
vector 118 Smarthome.smartphone.ipv4.ip packetDropNoInterfaceFound:vector(packetBytes) ETV
attr interpolationmode none
attr recordingmode vector(packetBytes)
attr source packetDropReasonIsNoInterfaceFound(packetDropped)
attr title "packet drop: no interface found, packetBytes"
vector 119 Smarthome.smartphone.ipv4.ip packetDropNoRouteFound:vector(packetBytes) ETV
attr interpolationmode none
attr recordingmode vector(packetBytes)
attr source packetDropReasonIsNoRouteFound(packetDropped)
attr title "packet drop: no route found, packetBytes"
vector 120 Smarthome.smartphone.ipv4.ip packetDropUndefined:vector(packetBytes) ETV
attr interpolationmode none
attr recordingmode vector(packetBytes)
attr source packetDropReasonIsUndefined(packetDropped)
attr title "packet drop: undefined, packetBytes"
vector 121 Smarthome.smartphone.ipv4.arp arpRequestSent:vector(packetBytes) ETV
attr recordingmode vector(packetBytes)
attr source arpRequestSent
attr title "ARP request sent, packetBytes"
vector 122 Smarthome.smartphone.ipv4.arp arpReplySent:vector(packetBytes) ETV
attr recordingmode vector(packetBytes)
attr source arpReplySent
attr title "ARP replies sent, packetBytes"
vector 123 Smarthome.smartphone.udp packetSent:vector(packetBytes) ETV
attr interpolationmode none
attr recordingmode vector(packetBytes)
attr source packetSent
attr title "packets sent, packetBytes"
vector 124 Smarthome.smartphone.udp packetReceived:vector(packetBytes) ETV
attr interpolationmode none
attr recordingmode vector(packetBytes)
attr source packetReceived
attr title "packets received, packetBytes"
vector 125 Smarthome.smartphone.udp passedUpPk:vector(count) ETV
attr interpolationmode none
attr recordingmode vector(count)
attr source packetSentToUpper
attr title "packets passed up, count"
vector 126 Smarthome.smartphone.udp droppedPkWrongPort:vector(count) ETV
attr interpolationmode none
attr recordingmode vector(count)
attr source packetDropReasonIsNoPortFound(packetDropped)
attr title "packets dropped (wrong port), count"
vector 127 Smarthome.smartphone.udp droppedPkBadChecksum:vector(count) ETV
attr interpolationmode none
attr recordingmode vector(count)
attr source packetDropReasonIsIncorrectlyReceived(packetDropped)
attr title "packets dropped (checksum error), count"
vector 128 Smarthome.smartphone.app[0] packetReceived:vector(packetBytes) ETV
attr interpolationmode none
attr recordingmode vector(packetBytes)
attr source packetReceived
attr title "packets received, packetBytes"
vector 129 Smarthome.smartphone.app[0] throughput:vector ETV
attr recordingmode vector
attr source throughput(packetReceived)
attr title throughput
attr unit bps
vector 130 Smarthome.smartphone.app[0] packetSent:vector(packetBytes) ETV
attr interpolationmode none
attr recordingmode vector(packetBytes)
attr source packetSent
attr title "packets sent, packetBytes"
vector 131 Smarthome.smartphone.app[0] rcvdPkLifetime:vector ETV
attr interpolationmode none
attr recordingmode vector
attr source dataAge(packetReceived)
attr title "received packet lifetime"
attr unit s
vector 132 Smarthome.smartphone.app[0] rcvdPkSeqNo:vector ETV
attr interpolationmode none
attr recordingmode vector
attr source appPkSeqNo(packetReceived)
attr title "received packet sequence number"
vector 133 Smarthome.smartLight.lo[0].lo rcvdPkFromHl:vector(packetBytes) ETV
attr interpolationmode none
attr recordingmode vector(packetBytes)
attr source packetReceivedFromUpper
attr title "packets received from higher layer, packetBytes"
vector 134 Smarthome.smartLight.lo[0].lo passedUpPk:vector(packetBytes) ETV
attr interpolationmode none
attr recordingmode vector(packetBytes)
attr source packetSentToUpper
attr title "packets passed to higher layer, packetBytes"
vector 135 Smarthome.smartLight.lo[0] packetDropInterfaceDown:vector(packetBytes) ETV
attr interpolationmode none
attr recordingmode vector(packetBytes)
attr source packetDropReasonIsInterfaceDown(packetDropped)
attr title "packet drops: interface down, packetBytes"
vector 136 Smarthome.smartLight.lo[0] packetDropNoCarrier:vector(packetBytes) ETV
attr interpolationmode none
attr recordingmode vector(packetBytes)
attr source packetDropReasonIsNoCarrier(packetDropped)
attr title "packet drops: no carrier, packetBytes"
vector 137 Smarthome.smartLight.wlan[0].agent sentRequest:vector ETV
attr recordingmode vector
attr title "sent requests"
vector 138 Smarthome.smartLight.wlan[0].agent acceptConfirm:vector ETV
attr recordingmode vector
attr title "accepted confirms"
vector 139 Smarthome.smartLight.wlan[0].agent dropConfirm:vector ETV
attr recordingmode vector
attr title "dropped confirms"
vector 140 Smarthome.smartLight.wlan[0].mac.dcf.channelAccess.pendingQueue queueLength:vector ETV
attr autoWarmupFilter false
attr interpolationmode sample-hold
attr recordingmode vector
attr source "warmup(atomic(constant0(packetPushEnded) + count(packetPushStarted) - count(packetPulled) - count(packetRemoved) - count(packetDropped)))"
attr title "queue length"
attr unit pk
vector 141 Smarthome.smartLight.wlan[0].mac.dcf.channelAccess.pendingQueue queueBitLength:vector ETV
attr autoWarmupFilter false
attr interpolationmode sample-hold
attr recordingmode vector
attr source "warmup(atomic(constant0(packetPushEnded) + sum(packetLength(packetPushStarted)) - sum(packetLength(packetPulled)) - sum(packetLength(packetRemoved)) - sum(packetLength(packetDropped))))"
attr title "queue bit length"
attr unit b
vector 142 Smarthome.smartLight.wlan[0].mac.dcf.channelAccess.pendingQueue queueingTime:vector ETV
attr interpolationmode none
attr recordingmode vector
attr source queueingTime(packetPulled)
attr title "queueing times"
attr unit s
vector 143 Smarthome.smartLight.wlan[0].mac.dcf.channelAccess.pendingQueue incomingPacketLengths:vector ETV
attr interpolationmode none
attr recordingmode vector
attr source packetLength(packetPushStarted)
attr title "incoming packet lengths"
attr unit b
vector 144 Smarthome.smartLight.wlan[0].mac.dcf.channelAccess.pendingQueue incomingDataRate:vector ETV
attr interpolationmode linear
attr recordingmode vector
attr source throughput(packetPushStarted)
attr title "incoming datarate"
attr unit bps
vector 145 Smarthome.smartLight.wlan[0].mac.dcf.channelAccess.pendingQueue outgoingPacketLengths:vector ETV
attr interpolationmode none
attr recordingmode vector
attr source packetLength(packetPulled)
attr title "outgoing packet lengths"
attr unit b
vector 146 Smarthome.smartLight.wlan[0].mac.dcf.channelAccess.pendingQueue outgoingDataRate:vector ETV
attr interpolationmode linear
attr recordingmode vector
attr source throughput(packetPulled)
attr title "outgoing datarate"
attr unit bps
vector 147 Smarthome.smartLight.wlan[0].mac.dcf.channelAccess.pendingQueue droppedPacketLengthsQueueOverflow:vector ETV
attr interpolationmode none
attr recordingmode vector
attr source packetLength(packetDropReasonIsQueueOverflow(packetDropped))
attr title "dropped packet lengths: queue overflow"
attr unit b
vector 148 Smarthome.smartLight.wlan[0].mac.dcf.channelAccess.pendingQueue flowQueueingTime:vector ETV
attr interpolationmode none
attr recordingmode vector
attr source queueingTime(demuxFlow(packetPulled))
attr title "flow queueing times"
attr unit s
vector 149 Smarthome.smartLight.wlan[0].mac.dcf.channelAccess.pendingQueue flowIncomingDataRate:vector ETV
attr interpolationmode linear
attr recordingmode vector
attr source throughput(flowPacketLength(demuxFlow(packetPushStarted)))
attr title "flow specific incoming data rate"
attr unit bps
vector 150 Smarthome.smartLight.wlan[0].mac.dcf.channelAccess.pendingQueue flowOutgoingDataRate:vector ETV
attr interpolationmode linear
attr recordingmode vector
attr source throughput(flowPacketLength(demuxFlow(packetPulled)))
attr title "flow specific outgoing data rate"
attr unit bps
vector 151 Smarthome.smartLight.wlan[0].mac.dcf.channelAccess.inProgressFrames queueingTime:vector ETV
attr interpolationmode none
attr recordingmode vector
attr source queueingTime(packetDequeued)
attr title "queueing times"
vector 152 Smarthome.smartLight.wlan[0].mac.dcf.channelAccess.inProgressFrames queueLength:vector ETV
attr autoWarmupFilter false
attr interpolationmode sample-hold
attr recordingmode vector
attr source "warmup(count(packetEnqueued) - count(packetDequeued))"
attr title "queue length"
vector 153 Smarthome.smartLight.wlan[0].mac.dcf.channelAccess.contention backoffPeriodGenerated:vector ETV
attr interpolationmode none
attr recordingmode vector
attr title "backoff periods"
vector 154 Smarthome.smartLight.wlan[0].mac.dcf.channelAccess.contention backoffActive:vector ETV
attr autoWarmupFilter false
attr interpolationmode sample-hold
attr recordingmode vector
attr source warmup(count(backoffStarted)-count(backoffStopped))
attr title "backoff active"
vector 155 Smarthome.smartLight.wlan[0].mac.dcf.channelAccess.contention stateChanged:vector ETV
attr enum IDLE,DEFER,IFS_AND_BACKOFF
attr interpolationmode none
attr recordingmode vector
attr title "contention state changed"
attr type enum
vector 156 Smarthome.smartLight.wlan[0].mac.dcf.recipientMacDataService packetDropDuplicateDetected:vector(packetBytes) ETV
attr interpolationmode none
attr recordingmode vector(packetBytes)
attr source packetDropReasonIsDuplicateDetected(packetDropped)
attr title "packet drops: duplicate detected, packetBytes"
vector 157 Smarthome.smartLight.wlan[0].mac.dcf.recoveryProcedure contentionWindowChanged:vector ETV
attr interpolationmode sample-hold
attr recordingmode vector
attr title "contention window"
vector 158 Smarthome.smartLight.wlan[0].mac.dcf packetSentToPeer:vector(packetBytes) ETV
attr interpolationmode none
attr recordingmode vector(packetBytes)
attr title "packets sent, packetBytes"
vector 159 Smarthome.smartLight.wlan[0].mac.dcf packetSentToPeerUnicast:vector(packetBytes) ETV
attr interpolationmode none
attr recordingmode vector(packetBytes)
attr source ieee80211Unicast(packetSentToPeer)
attr title "packets sent: unicast, packetBytes"
vector 160 Smarthome.smartLight.wlan[0].mac.dcf packetSentToPeerMulticast:vector(packetBytes) ETV
attr interpolationmode none
attr recordingmode vector(packetBytes)
attr source ieee80211Multicast(packetSentToPeer)
attr title "packets sent: multicast, packetBytes"
vector 161 Smarthome.smartLight.wlan[0].mac.dcf packetSentToPeerBroadcast:vector(packetBytes) ETV
attr interpolationmode none
attr recordingmode vector(packetBytes)
attr source ieee80211Broadcast(packetSentToPeer)
attr title "packets sent: broadcast , packetBytes"
vector 162 Smarthome.smartLight.wlan[0].mac.dcf packetSentToPeerWithRetry:vector(packetBytes) ETV
attr interpolationmode none
attr recordingmode vector(packetBytes)
attr source ieee80211Retry(packetSentToPeer)
attr title "packets sent: with retry, packetBytes"
vector 163 Smarthome.smartLight.wlan[0].mac.dcf packetSentToPeerWithoutRetry:vector(packetBytes) ETV
attr interpolationmode none
attr recordingmode vector(packetBytes)
attr source ieee80211NotRetry(packetSentToPeer)
attr title "packets sent: without retry, packetBytes"
vector 164 Smarthome.smartLight.wlan[0].mac.dcf packetReceivedFromPeer:vector(packetBytes) ETV
attr interpolationmode none
attr recordingmode vector(packetBytes)
attr title "packets received, packetBytes"
vector 165 Smarthome.smartLight.wlan[0].mac.dcf packetReceivedFromPeerUnicast:vector(packetBytes) ETV
attr interpolationmode none
attr recordingmode vector(packetBytes)
attr source ieee80211Unicast(packetReceivedFromPeer)
attr title "packets received: unicast, packetBytes"
vector 166 Smarthome.smartLight.wlan[0].mac.dcf packetReceivedFromPeerMulticast:vector(packetBytes) ETV
attr interpolationmode none
attr recordingmode vector(packetBytes)
attr source ieee80211Multicast(packetReceivedFromPeer)
attr title "packets received: multicast, packetBytes"
vector 167 Smarthome.smartLight.wlan[0].mac.dcf packetReceivedFromPeerBroadcast:vector(packetBytes) ETV
attr interpolationmode none
attr recordingmode vector(packetBytes)
attr source ieee80211Broadcast(packetReceivedFromPeer)
attr title "packets received: broadcast, packetBytes"
vector 168 Smarthome.smartLight.wlan[0].mac.dcf packetReceivedFromPeerWithRetry:vector(packetBytes) ETV
attr interpolationmode none
attr recordingmode vector(packetBytes)
attr source ieee80211Retry(packetReceivedFromPeer)
attr title "packets received: with retry, packetBytes"
vector 169 Smarthome.smartLight.wlan[0].mac.dcf packetReceivedFromPeerWithoutRetry:vector(packetBytes) ETV
attr interpolationmode none
attr recordingmode vector(packetBytes)
attr source ieee80211NotRetry(packetReceivedFromPeer)
attr title "packets received: without retry, packetBytes"
vector 170 Smarthome.smartLight.wlan[0].mac.dcf packetDrop:vector(packetBytes) ETV
attr interpolationmode none
attr recordingmode vector(packetBytes)
attr source packetDropped
attr title "packet drops, packetBytes"
vector 171 Smarthome.smartLight.wlan[0].mac.dcf packetDropNotAddressedToUs:vector(packetBytes) ETV
attr interpolationmode none
attr recordingmode vector(packetBytes)
attr source packetDropReasonIsNotAddressedToUs(packetDropped)
attr title "packet drops: not addressed to us, packetBytes"
vector 172 Smarthome.smartLight.wlan[0].mac.dcf packetDropQueueOverflow:vector(packetBytes) ETV
attr interpolationmode none
attr recordingmode vector(packetBytes)
attr source packetDropReasonIsQueueOverflow(packetDropped)
attr title "packet drops: queue overflow, packetBytes"
vector 173 Smarthome.smartLight.wlan[0].mac.dcf packetDropRetryLimitReached:vector(packetBytes) ETV
attr interpolationmode none
attr recordingmode vector(packetBytes)
attr source packetDropReasonIsRetryLimitReached(packetDropped)
attr title "packet drops: retry limit reached, packetBytes"
vector 174 Smarthome.smartLight.wlan[0].mac.dcf frameSequenceActive:vector ETV
attr autoWarmupFilter false
attr interpolationmode sample-hold
attr recordingmode vector
attr source warmup(count(frameSequenceStarted)-count(frameSequenceFinished))
attr title "frame sequence active"
vector 175 Smarthome.smartLight.wlan[0].mac.dcf datarateSelected:vector ETV
attr interpolationmode none
attr recordingmode vector
attr title "datarates selected"
vector 176 Smarthome.smartLight.wlan[0].mac.rx nav:vector ETV
attr interpolationmode linear
attr recordingmode vector
attr source navChanged
attr title "network allocation vector"
vector 177 Smarthome.smartLight.wlan[0].mac packetSentToUpper:vector(packetBytes) ETV
attr interpolationmode none
attr recordingmode vector(packetBytes)
attr title "packets sent to upper layer, packetBytes"
vector 178 Smarthome.smartLight.wlan[0].mac packetSentToLower:vector(packetBytes) ETV
attr interpolationmode none
attr recordingmode vector(packetBytes)
attr title "packets sent to lower layer, packetBytes"
vector 179 Smarthome.smartLight.wlan[0].mac packetReceivedFromUpper:vector(packetBytes) ETV
attr interpolationmode none
attr recordingmode vector(packetBytes)
attr title "packets received from upper layer, packetBytes"
vector 180 Smarthome.smartLight.wlan[0].mac packetReceivedFromLower:vector(packetBytes) ETV
attr interpolationmode none
attr recordingmode vector(packetBytes)
attr title "packets received from lower layer, packetBytes"
vector 181 Smarthome.smartLight.wlan[0].mac packetDrop:vector(packetBytes) ETV
attr interpolationmode none
attr recordingmode vector(packetBytes)
attr source packetDropped
attr title "packet drops, packetBytes"
vector 182 Smarthome.smartLight.wlan[0].mac packetDropIncorrectlyReceived:vector(packetBytes) ETV
attr interpolationmode none
attr recordingmode vector(packetBytes)
attr source packetDropReasonIsIncorrectlyReceived(packetDropped)
attr title "packet drops: incorrectly received, packetBytes"
vector 183 Smarthome.smartLight.wlan[0].mac packetDropNotAddressedToUs:vector(packetBytes) ETV
attr interpolationmode none
attr recordingmode vector(packetBytes)
attr source packetDropReasonIsNotAddressedToUs(packetDropped)
attr title "packet drops: not addressed to us, packetBytes"
vector 184 Smarthome.smartLight.wlan[0].mac packetDropQueueOverflow:vector(packetBytes) ETV
attr interpolationmode none
attr recordingmode vector(packetBytes)
attr source packetDropReasonIsQueueOverflow(packetDropped)
attr title "packet drops: queue overflow, packetBytes"
vector 185 Smarthome.smartLight.wlan[0].mac packetDropRetryLimitReached:vector(packetBytes) ETV
attr interpolationmode none
attr recordingmode vector(packetBytes)
attr source packetDropReasonIsRetryLimitReached(packetDropped)
attr title "packet drops: retry limit reached, packetBytes"
vector 186 Smarthome.smartLight.wlan[0].mac packetDropDuplicateDetected:vector(packetBytes) ETV
attr interpolationmode none
attr recordingmode vector(packetBytes)
attr source packetDropReasonIsDuplicateDetected(packetDropped)
attr title "packet drops: duplicate detected, packetBytes"
vector 187 Smarthome.smartLight.wlan[0].mac packetDropOther:vector(packetBytes) ETV
attr interpolationmode none
attr recordingmode vector(packetBytes)
attr source packetDropReasonIsOther(packetDropped)
attr title "packet drops: other, packetBytes"
vector 188 Smarthome.smartLight.wlan[0].radio radioMode:vector ETV
attr interpolationmode sample-hold
attr recordingmode vector
attr source radioModeChanged
attr title "Radio mode"
vector 189 Smarthome.smartLight.wlan[0].radio receptionState:vector ETV
attr interpolationmode sample-hold
attr recordingmode vector
attr source receptionStateChanged
attr title "Radio reception state"
vector 190 Smarthome.smartLight.wlan[0].radio transmissionState:vector ETV
attr interpolationmode sample-hold
attr recordingmode vector
attr source transmissionStateChanged
attr title "Radio transmission state"
vector 191 Smarthome.smartLight.wlan[0].radio radioChannel:vector ETV
attr interpolationmode sample-hold
attr recordingmode vector
attr source radioChannelChanged
attr title "Radio channel"
vector 192 Smarthome.smartLight.wlan[0] packetDropInterfaceDown:vector(packetBytes) ETV
attr interpolationmode none
attr recordingmode vector(packetBytes)
attr source packetDropReasonIsInterfaceDown(packetDropped)
attr title "packet drops: interface down, packetBytes"
vector 193 Smarthome.smartLight.wlan[0] packetDropNoCarrier:vector(packetBytes) ETV
attr interpolationmode none
attr recordingmode vector(packetBytes)
attr source packetDropReasonIsNoCarrier(packetDropped)
attr title "packet drops: no carrier, packetBytes"
vector 194 Smarthome.smartLight.ipv4.ip packetDropAddressResolutionFailed:vector(packetBytes) ETV
attr interpolationmode none
attr recordingmode vector(packetBytes)
attr source packetDropReasonIsAddressResolutionFailed(packetDropped)
attr title "packet drop: address resolution failed, packetBytes"
vector 195 Smarthome.smartLight.ipv4.ip packetDropHopLimitReached:vector(packetBytes) ETV
attr interpolationmode none
attr recordingmode vector(packetBytes)
attr source packetDropReasonIsHopLimitReached(packetDropped)
attr title "packet drop: hop limit reached, packetBytes"
vector 196 Smarthome.smartLight.ipv4.ip packetDropForwardingDisabled:vector(packetBytes) ETV
attr interpolationmode none
attr recordingmode vector(packetBytes)
attr source packetDropReasonIsForwardingDisabled(packetDropped)
attr title "packet drop: forwarding disabled, packetBytes"
vector 197 Smarthome.smartLight.ipv4.ip packetDropNoInterfaceFound:vector(packetBytes) ETV
attr interpolationmode none
attr recordingmode vector(packetBytes)
attr source packetDropReasonIsNoInterfaceFound(packetDropped)
attr title "packet drop: no interface found, packetBytes"
vector 198 Smarthome.smartLight.ipv4.ip packetDropNoRouteFound:vector(packetBytes) ETV
attr interpolationmode none
attr recordingmode vector(packetBytes)
attr source packetDropReasonIsNoRouteFound(packetDropped)
attr title "packet drop: no route found, packetBytes"
vector 199 Smarthome.smartLight.ipv4.ip packetDropUndefined:vector(packetBytes) ETV
attr interpolationmode none
attr recordingmode vector(packetBytes)
attr source packetDropReasonIsUndefined(packetDropped)
attr title "packet drop: undefined, packetBytes"
vector 200 Smarthome.smartLight.ipv4.arp arpRequestSent:vector(packetBytes) ETV
attr recordingmode vector(packetBytes)
attr source arpRequestSent
attr title "ARP request sent, packetBytes"
vector 201 Smarthome.smartLight.ipv4.arp arpReplySent:vector(packetBytes) ETV
attr recordingmode vector(packetBytes)
attr source arpReplySent
attr title "ARP replies sent, packetBytes"
vector 202 Smarthome.smartLight.udp packetSent:vector(packetBytes) ETV
attr interpolationmode none
attr recordingmode vector(packetBytes)
attr source packetSent
attr title "packets sent, packetBytes"
vector 203 Smarthome.smartLight.udp packetReceived:vector(packetBytes) ETV
attr interpolationmode none
attr recordingmode vector(packetBytes)
attr source packetReceived
attr title "packets received, packetBytes"
vector 204 Smarthome.smartLight.udp passedUpPk:vector(count) ETV
attr interpolationmode none
attr recordingmode vector(count)
attr source packetSentToUpper
attr title "packets passed up, count"
vector 205 Smarthome.smartLight.udp droppedPkWrongPort:vector(count) ETV
attr interpolationmode none
attr recordingmode vector(count)
attr source packetDropReasonIsNoPortFound(packetDropped)
attr title "packets dropped (wrong port), count"
vector 206 Smarthome.smartLight.udp droppedPkBadChecksum:vector(count) ETV
attr interpolationmode none
attr recordingmode vector(count)
attr source packetDropReasonIsIncorrectlyReceived(packetDropped)
attr title "packets dropped (checksum error), count"
vector 207 Smarthome.smartLight.app[0] packetReceived:vector(packetBytes) ETV
attr interpolationmode none
attr recordingmode vector(packetBytes)
attr source packetReceived
attr title "packets received, packetBytes"
vector 208 Smarthome.smartLight.app[0] throughput:vector ETV
attr recordingmode vector
attr source throughput(packetReceived)
attr title throughput
attr unit bps
vector 209 Smarthome.smartLight.app[0] endToEndDelay:vector ETV
attr interpolationmode none
attr recordingmode vector
attr source dataAge(packetReceived)
attr title "end-to-end delay"
attr unit s
vector 210 Smarthome.smartLight.app[0] rcvdPkSeqNo:vector ETV
attr interpolationmode none
attr recordingmode vector
attr source appPkSeqNo(packetReceived)
attr title "received packet sequence number"
vector 211 Smarthome.smartThermostat.lo[0].lo rcvdPkFromHl:vector(packetBytes) ETV
attr interpolationmode none
attr recordingmode vector(packetBytes)
attr source packetReceivedFromUpper
attr title "packets received from higher layer, packetBytes"
vector 212 Smarthome.smartThermostat.lo[0].lo passedUpPk:vector(packetBytes) ETV
attr interpolationmode none
attr recordingmode vector(packetBytes)
attr source packetSentToUpper
attr title "packets passed to higher layer, packetBytes"
vector 213 Smarthome.smartThermostat.lo[0] packetDropInterfaceDown:vector(packetBytes) ETV
attr interpolationmode none
attr recordingmode vector(packetBytes)
attr source packetDropReasonIsInterfaceDown(packetDropped)
attr title "packet drops: interface down, packetBytes"
vector 214 Smarthome.smartThermostat.lo[0] packetDropNoCarrier:vector(packetBytes) ETV
attr interpolationmode none
attr recordingmode vector(packetBytes)
attr source packetDropReasonIsNoCarrier(packetDropped)
attr title "packet drops: no carrier, packetBytes"
vector 215 Smarthome.smartThermostat.wlan[0].agent sentRequest:vector ETV
attr recordingmode vector
attr title "sent requests"
vector 216 Smarthome.smartThermostat.wlan[0].agent acceptConfirm:vector ETV
attr recordingmode vector
attr title "accepted confirms"
vector 217 Smarthome.smartThermostat.wlan[0].agent dropConfirm:vector ETV
attr recordingmode vector
attr title "dropped confirms"
vector 218 Smarthome.smartThermostat.wlan[0].mac.dcf.channelAccess.pendingQueue queueLength:vector ETV
attr autoWarmupFilter false
attr interpolationmode sample-hold
attr recordingmode vector
attr source "warmup(atomic(constant0(packetPushEnded) + count(packetPushStarted) - count(packetPulled) - count(packetRemoved) - count(packetDropped)))"
attr title "queue length"
attr unit pk
vector 219 Smarthome.smartThermostat.wlan[0].mac.dcf.channelAccess.pendingQueue queueBitLength:vector ETV
attr autoWarmupFilter false
attr interpolationmode sample-hold
attr recordingmode vector
attr source "warmup(atomic(constant0(packetPushEnded) + sum(packetLength(packetPushStarted)) - sum(packetLength(packetPulled)) - sum(packetLength(packetRemoved)) - sum(packetLength(packetDropped))))"
attr title "queue bit length"
attr unit b
vector 220 Smarthome.smartThermostat.wlan[0].mac.dcf.channelAccess.pendingQueue queueingTime:vector ETV
attr interpolationmode none
attr recordingmode vector
attr source queueingTime(packetPulled)
attr title "queueing times"
attr unit s
vector 221 Smarthome.smartThermostat.wlan[0].mac.dcf.channelAccess.pendingQueue incomingPacketLengths:vector ETV
attr interpolationmode none
attr recordingmode vector
attr source packetLength(packetPushStarted)
attr title "incoming packet lengths"
attr unit b
vector 222 Smarthome.smartThermostat.wlan[0].mac.dcf.channelAccess.pendingQueue incomingDataRate:vector ETV
attr interpolationmode linear
attr recordingmode vector
attr source throughput(packetPushStarted)
attr title "incoming datarate"
attr unit bps
vector 223 Smarthome.smartThermostat.wlan[0].mac.dcf.channelAccess.pendingQueue outgoingPacketLengths:vector ETV
attr interpolationmode none
attr recordingmode vector
attr source packetLength(packetPulled)
attr title "outgoing packet lengths"
attr unit b
vector 224 Smarthome.smartThermostat.wlan[0].mac.dcf.channelAccess.pendingQueue outgoingDataRate:vector ETV
attr interpolationmode linear
attr recordingmode vector
attr source throughput(packetPulled)
attr title "outgoing datarate"
attr unit bps
vector 225 Smarthome.smartThermostat.wlan[0].mac.dcf.channelAccess.pendingQueue droppedPacketLengthsQueueOverflow:vector ETV
attr interpolationmode none
attr recordingmode vector
attr source packetLength(packetDropReasonIsQueueOverflow(packetDropped))
attr title "dropped packet lengths: queue overflow"
attr unit b
vector 226 Smarthome.smartThermostat.wlan[0].mac.dcf.channelAccess.pendingQueue flowQueueingTime:vector ETV
attr interpolationmode none
attr recordingmode vector
attr source queueingTime(demuxFlow(packetPulled))
attr title "flow queueing times"
attr unit s
vector 227 Smarthome.smartThermostat.wlan[0].mac.dcf.channelAccess.pendingQueue flowIncomingDataRate:vector ETV
attr interpolationmode linear
attr recordingmode vector
attr source throughput(flowPacketLength(demuxFlow(packetPushStarted)))
attr title "flow specific incoming data rate"
attr unit bps
vector 228 Smarthome.smartThermostat.wlan[0].mac.dcf.channelAccess.pendingQueue flowOutgoingDataRate:vector ETV
attr interpolationmode linear
attr recordingmode vector
attr source throughput(flowPacketLength(demuxFlow(packetPulled)))
attr title "flow specific outgoing data rate"
attr unit bps
vector 229 Smarthome.smartThermostat.wlan[0].mac.dcf.channelAccess.inProgressFrames queueingTime:vector ETV
attr interpolationmode none
attr recordingmode vector
attr source queueingTime(packetDequeued)
attr title "queueing times"
vector 230 Smarthome.smartThermostat.wlan[0].mac.dcf.channelAccess.inProgressFrames queueLength:vector ETV
attr autoWarmupFilter false
attr interpolationmode sample-hold
attr recordingmode vector
attr source "warmup(count(packetEnqueued) - count(packetDequeued))"
attr title "queue length"
vector 231 Smarthome.smartThermostat.wlan[0].mac.dcf.channelAccess.contention backoffPeriodGenerated:vector ETV
attr interpolationmode none
attr recordingmode vector
attr title "backoff periods"
vector 232 Smarthome.smartThermostat.wlan[0].mac.dcf.channelAccess.contention backoffActive:vector ETV
attr autoWarmupFilter false
attr interpolationmode sample-hold
attr recordingmode vector
attr source warmup(count(backoffStarted)-count(backoffStopped))
attr title "backoff active"
vector 233 Smarthome.smartThermostat.wlan[0].mac.dcf.channelAccess.contention stateChanged:vector ETV
attr enum IDLE,DEFER,IFS_AND_BACKOFF
attr interpolationmode none
attr recordingmode vector
attr title "contention state changed"
attr type enum
vector 234 Smarthome.smartThermostat.wlan[0].mac.dcf.recipientMacDataService packetDropDuplicateDetected:vector(packetBytes) ETV
attr interpolationmode none
attr recordingmode vector(packetBytes)
attr source packetDropReasonIsDuplicateDetected(packetDropped)
attr title "packet drops: duplicate detected, packetBytes"
vector 235 Smarthome.smartThermostat.wlan[0].mac.dcf.recoveryProcedure contentionWindowChanged:vector ETV
attr interpolationmode sample-hold
attr recordingmode vector
attr title "contention window"
vector 236 Smarthome.smartThermostat.wlan[0].mac.dcf packetSentToPeer:vector(packetBytes) ETV
attr interpolationmode none
attr recordingmode vector(packetBytes)
attr title "packets sent, packetBytes"
vector 237 Smarthome.smartThermostat.wlan[0].mac.dcf packetSentToPeerUnicast:vector(packetBytes) ETV
attr interpolationmode none
attr recordingmode vector(packetBytes)
attr source ieee80211Unicast(packetSentToPeer)
attr title "packets sent: unicast, packetBytes"
vector 238 Smarthome.smartThermostat.wlan[0].mac.dcf packetSentToPeerMulticast:vector(packetBytes) ETV
attr interpolationmode none
attr recordingmode vector(packetBytes)
attr source ieee80211Multicast(packetSentToPeer)
attr title "packets sent: multicast, packetBytes"
vector 239 Smarthome.smartThermostat.wlan[0].mac.dcf packetSentToPeerBroadcast:vector(packetBytes) ETV
attr interpolationmode none
attr recordingmode vector(packetBytes)
attr source ieee80211Broadcast(packetSentToPeer)
attr title "packets sent: broadcast , packetBytes"
vector 240 Smarthome.smartThermostat.wlan[0].mac.dcf packetSentToPeerWithRetry:vector(packetBytes) ETV
attr interpolationmode none
attr recordingmode vector(packetBytes)
attr source ieee80211Retry(packetSentToPeer)
attr title "packets sent: with retry, packetBytes"
vector 241 Smarthome.smartThermostat.wlan[0].mac.dcf packetSentToPeerWithoutRetry:vector(packetBytes) ETV
attr interpolationmode none
attr recordingmode vector(packetBytes)
attr source ieee80211NotRetry(packetSentToPeer)
attr title "packets sent: without retry, packetBytes"
vector 242 Smarthome.smartThermostat.wlan[0].mac.dcf packetReceivedFromPeer:vector(packetBytes) ETV
attr interpolationmode none
attr recordingmode vector(packetBytes)
attr title "packets received, packetBytes"
vector 243 Smarthome.smartThermostat.wlan[0].mac.dcf packetReceivedFromPeerUnicast:vector(packetBytes) ETV
attr interpolationmode none
attr recordingmode vector(packetBytes)
attr source ieee80211Unicast(packetReceivedFromPeer)
attr title "packets received: unicast, packetBytes"
vector 244 Smarthome.smartThermostat.wlan[0].mac.dcf packetReceivedFromPeerMulticast:vector(packetBytes) ETV
attr interpolationmode none
attr recordingmode vector(packetBytes)
attr source ieee80211Multicast(packetReceivedFromPeer)
attr title "packets received: multicast, packetBytes"
vector 245 Smarthome.smartThermostat.wlan[0].mac.dcf packetReceivedFromPeerBroadcast:vector(packetBytes) ETV
attr interpolationmode none
attr recordingmode vector(packetBytes)
attr source ieee80211Broadcast(packetReceivedFromPeer)
attr title "packets received: broadcast, packetBytes"
vector 246 Smarthome.smartThermostat.wlan[0].mac.dcf packetReceivedFromPeerWithRetry:vector(packetBytes) ETV
attr interpolationmode none
attr recordingmode vector(packetBytes)
attr source ieee80211Retry(packetReceivedFromPeer)
attr title "packets received: with retry, packetBytes"
vector 247 Smarthome.smartThermostat.wlan[0].mac.dcf packetReceivedFromPeerWithoutRetry:vector(packetBytes) ETV
attr interpolationmode none
attr recordingmode vector(packetBytes)
attr source ieee80211NotRetry(packetReceivedFromPeer)
attr title "packets received: without retry, packetBytes"
vector 248 Smarthome.smartThermostat.wlan[0].mac.dcf packetDrop:vector(packetBytes) ETV
attr interpolationmode none
attr recordingmode vector(packetBytes)
attr source packetDropped
attr title "packet drops, packetBytes"
vector 249 Smarthome.smartThermostat.wlan[0].mac.dcf packetDropNotAddressedToUs:vector(packetBytes) ETV
attr interpolationmode none
attr recordingmode vector(packetBytes)
attr source packetDropReasonIsNotAddressedToUs(packetDropped)
attr title "packet drops: not addressed to us, packetBytes"
vector 250 Smarthome.smartThermostat.wlan[0].mac.dcf packetDropQueueOverflow:vector(packetBytes) ETV
attr interpolationmode none
attr recordingmode vector(packetBytes)
attr source packetDropReasonIsQueueOverflow(packetDropped)
attr title "packet drops: queue overflow, packetBytes"
vector 251 Smarthome.smartThermostat.wlan[0].mac.dcf packetDropRetryLimitReached:vector(packetBytes) ETV
attr interpolationmode none
attr recordingmode vector(packetBytes)
attr source packetDropReasonIsRetryLimitReached(packetDropped)
attr title "packet drops: retry limit reached, packetBytes"
vector 252 Smarthome.smartThermostat.wlan[0].mac.dcf frameSequenceActive:vector ETV
attr autoWarmupFilter false
attr interpolationmode sample-hold
attr recordingmode vector
attr source warmup(count(frameSequenceStarted)-count(frameSequenceFinished))
attr title "frame sequence active"
vector 253 Smarthome.smartThermostat.wlan[0].mac.dcf datarateSelected:vector ETV
attr interpolationmode none
attr recordingmode vector
attr title "datarates selected"
vector 254 Smarthome.smartThermostat.wlan[0].mac.rx nav:vector ETV
attr interpolationmode linear
attr recordingmode vector
attr source navChanged
attr title "network allocation vector"
vector 255 Smarthome.smartThermostat.wlan[0].mac packetSentToUpper:vector(packetBytes) ETV
attr interpolationmode none
attr recordingmode vector(packetBytes)
attr title "packets sent to upper layer, packetBytes"
vector 256 Smarthome.smartThermostat.wlan[0].mac packetSentToLower:vector(packetBytes) ETV
attr interpolationmode none
attr recordingmode vector(packetBytes)
attr title "packets sent to lower layer, packetBytes"
vector 257 Smarthome.smartThermostat.wlan[0].mac packetReceivedFromUpper:vector(packetBytes) ETV
attr interpolationmode none
attr recordingmode vector(packetBytes)
attr title "packets received from upper layer, packetBytes"
vector 258 Smarthome.smartThermostat.wlan[0].mac packetReceivedFromLower:vector(packetBytes) ETV
attr interpolationmode none
attr recordingmode vector(packetBytes)
attr title "packets received from lower layer, packetBytes"
vector 259 Smarthome.smartThermostat.wlan[0].mac packetDrop:vector(packetBytes) ETV
attr interpolationmode none
attr recordingmode vector(packetBytes)
attr source packetDropped
attr title "packet drops, packetBytes"
vector 260 Smarthome.smartThermostat.wlan[0].mac packetDropIncorrectlyReceived:vector(packetBytes) ETV
attr interpolationmode none
attr recordingmode vector(packetBytes)
attr source packetDropReasonIsIncorrectlyReceived(packetDropped)
attr title "packet drops: incorrectly received, packetBytes"
vector 261 Smarthome.smartThermostat.wlan[0].mac packetDropNotAddressedToUs:vector(packetBytes) ETV
attr interpolationmode none
attr recordingmode vector(packetBytes)
attr source packetDropReasonIsNotAddressedToUs(packetDropped)
attr title "packet drops: not addressed to us, packetBytes"
vector 262 Smarthome.smartThermostat.wlan[0].mac packetDropQueueOverflow:vector(packetBytes) ETV
attr interpolationmode none
attr recordingmode vector(packetBytes)
attr source packetDropReasonIsQueueOverflow(packetDropped)
attr title "packet drops: queue overflow, packetBytes"
vector 263 Smarthome.smartThermostat.wlan[0].mac packetDropRetryLimitReached:vector(packetBytes) ETV
attr interpolationmode none
attr recordingmode vector(packetBytes)
attr source packetDropReasonIsRetryLimitReached(packetDropped)
attr title "packet drops: retry limit reached, packetBytes"
vector 264 Smarthome.smartThermostat.wlan[0].mac packetDropDuplicateDetected:vector(packetBytes) ETV
attr interpolationmode none
attr recordingmode vector(packetBytes)
attr source packetDropReasonIsDuplicateDetected(packetDropped)
attr title "packet drops: duplicate detected, packetBytes"
vector 265 Smarthome.smartThermostat.wlan[0].mac packetDropOther:vector(packetBytes) ETV
attr interpolationmode none
attr recordingmode vector(packetBytes)
attr source packetDropReasonIsOther(packetDropped)
attr title "packet drops: other, packetBytes"
vector 266 Smarthome.smartThermostat.wlan[0].radio radioMode:vector ETV
attr interpolationmode sample-hold
attr recordingmode vector
attr source radioModeChanged
attr title "Radio mode"
vector 267 Smarthome.smartThermostat.wlan[0].radio receptionState:vector ETV
attr interpolationmode sample-hold
attr recordingmode vector
attr source receptionStateChanged
attr title "Radio reception state"
vector 268 Smarthome.smartThermostat.wlan[0].radio transmissionState:vector ETV
attr interpolationmode sample-hold
attr recordingmode vector
attr source transmissionStateChanged
attr title "Radio transmission state"
vector 269 Smarthome.smartThermostat.wlan[0].radio radioChannel:vector ETV
attr interpolationmode sample-hold
attr recordingmode vector
attr source radioChannelChanged
attr title "Radio channel"
vector 270 Smarthome.smartThermostat.wlan[0] packetDropInterfaceDown:vector(packetBytes) ETV
attr interpolationmode none
attr recordingmode vector(packetBytes)
attr source packetDropReasonIsInterfaceDown(packetDropped)
attr title "packet drops: interface down, packetBytes"
vector 271 Smarthome.smartThermostat.wlan[0] packetDropNoCarrier:vector(packetBytes) ETV
attr interpolationmode none
attr recordingmode vector(packetBytes)
attr source packetDropReasonIsNoCarrier(packetDropped)
attr title "packet drops: no carrier, packetBytes"
vector 272 Smarthome.smartThermostat.ipv4.ip packetDropAddressResolutionFailed:vector(packetBytes) ETV
attr interpolationmode none
attr recordingmode vector(packetBytes)
attr source packetDropReasonIsAddressResolutionFailed(packetDropped)
attr title "packet drop: address resolution failed, packetBytes"
vector 273 Smarthome.smartThermostat.ipv4.ip packetDropHopLimitReached:vector(packetBytes) ETV
attr interpolationmode none
attr recordingmode vector(packetBytes)
attr source packetDropReasonIsHopLimitReached(packetDropped)
attr title "packet drop: hop limit reached, packetBytes"
vector 274 Smarthome.smartThermostat.ipv4.ip packetDropForwardingDisabled:vector(packetBytes) ETV
attr interpolationmode none
attr recordingmode vector(packetBytes)
attr source packetDropReasonIsForwardingDisabled(packetDropped)
attr title "packet drop: forwarding disabled, packetBytes"
vector 275 Smarthome.smartThermostat.ipv4.ip packetDropNoInterfaceFound:vector(packetBytes) ETV
attr interpolationmode none
attr recordingmode vector(packetBytes)
attr source packetDropReasonIsNoInterfaceFound(packetDropped)
attr title "packet drop: no interface found, packetBytes"
vector 276 Smarthome.smartThermostat.ipv4.ip packetDropNoRouteFound:vector(packetBytes) ETV
attr interpolationmode none
attr recordingmode vector(packetBytes)
attr source packetDropReasonIsNoRouteFound(packetDropped)
attr title "packet drop: no route found, packetBytes"
vector 277 Smarthome.smartThermostat.ipv4.ip packetDropUndefined:vector(packetBytes) ETV
attr interpolationmode none
attr recordingmode vector(packetBytes)
attr source packetDropReasonIsUndefined(packetDropped)
attr title "packet drop: undefined, packetBytes"
vector 278 Smarthome.smartThermostat.ipv4.arp arpRequestSent:vector(packetBytes) ETV
attr recordingmode vector(packetBytes)
attr source arpRequestSent
attr title "ARP request sent, packetBytes"
vector 279 Smarthome.smartThermostat.ipv4.arp arpReplySent:vector(packetBytes) ETV
attr recordingmode vector(packetBytes)
attr source arpReplySent
attr title "ARP replies sent, packetBytes"
vector 280 Smarthome.smartThermostat.udp packetSent:vector(packetBytes) ETV
attr interpolationmode none
attr recordingmode vector(packetBytes)
attr source packetSent
attr title "packets sent, packetBytes"
vector 281 Smarthome.smartThermostat.udp packetReceived:vector(packetBytes) ETV
attr interpolationmode none
attr recordingmode vector(packetBytes)
attr source packetReceived
attr title "packets received, packetBytes"
vector 282 Smarthome.smartThermostat.udp passedUpPk:vector(count) ETV
attr interpolationmode none
attr recordingmode vector(count)
attr source packetSentToUpper
attr title "packets passed up, count"
vector 283 Smarthome.smartThermostat.udp droppedPkWrongPort:vector(count) ETV
attr interpolationmode none
attr recordingmode vector(count)
attr source packetDropReasonIsNoPortFound(packetDropped)
attr title "packets dropped (wrong port), count"
vector 284 Smarthome.smartThermostat.udp droppedPkBadChecksum:vector(count) ETV
attr interpolationmode none
attr recordingmode vector(count)
attr source packetDropReasonIsIncorrectlyReceived(packetDropped)
attr title "packets dropped (checksum error), count"
vector 285 Smarthome.smartThermostat.app[0] packetReceived:vector(packetBytes) ETV
attr interpolationmode none
attr recordingmode vector(packetBytes)
attr source packetReceived
attr title "packets received, packetBytes"
vector 286 Smarthome.smartThermostat.app[0] throughput:vector ETV
attr recordingmode vector
attr source throughput(packetReceived)
attr title throughput
attr unit bps
vector 287 Smarthome.smartThermostat.app[0] packetSent:vector(packetBytes) ETV
attr interpolationmode none
attr recordingmode vector(packetBytes)
attr source packetSent
attr title "packets sent, packetBytes"
vector 288 Smarthome.smartThermostat.app[0] rcvdPkLifetime:vector ETV
attr interpolationmode none
attr recordingmode vector
attr source dataAge(packetReceived)
attr title "received packet lifetime"
attr unit s
vector 289 Smarthome.smartThermostat.app[0] rcvdPkSeqNo:vector ETV
attr interpolationmode none
attr recordingmode vector
attr source appPkSeqNo(packetReceived)
attr title "received packet sequence number"
vector 290 Smarthome.smartTV.lo[0].lo rcvdPkFromHl:vector(packetBytes) ETV
attr interpolationmode none
attr recordingmode vector(packetBytes)
attr source packetReceivedFromUpper
attr title "packets received from higher layer, packetBytes"
vector 291 Smarthome.smartTV.lo[0].lo passedUpPk:vector(packetBytes) ETV
attr interpolationmode none
attr recordingmode vector(packetBytes)
attr source packetSentToUpper
attr title "packets passed to higher layer, packetBytes"
vector 292 Smarthome.smartTV.lo[0] packetDropInterfaceDown:vector(packetBytes) ETV
attr interpolationmode none
attr recordingmode vector(packetBytes)
attr source packetDropReasonIsInterfaceDown(packetDropped)
attr title "packet drops: interface down, packetBytes"
vector 293 Smarthome.smartTV.lo[0] packetDropNoCarrier:vector(packetBytes) ETV
attr interpolationmode none
attr recordingmode vector(packetBytes)
attr source packetDropReasonIsNoCarrier(packetDropped)
attr title "packet drops: no carrier, packetBytes"
vector 294 Smarthome.smartTV.wlan[0].agent sentRequest:vector ETV
attr recordingmode vector
attr title "sent requests"
vector 295 Smarthome.smartTV.wlan[0].agent acceptConfirm:vector ETV
attr recordingmode vector
attr title "accepted confirms"
vector 296 Smarthome.smartTV.wlan[0].agent dropConfirm:vector ETV
attr recordingmode vector
attr title "dropped confirms"
vector 297 Smarthome.smartTV.wlan[0].mac.dcf.channelAccess.pendingQueue queueLength:vector ETV
attr autoWarmupFilter false
attr interpolationmode sample-hold
attr recordingmode vector
attr source "warmup(atomic(constant0(packetPushEnded) + count(packetPushStarted) - count(packetPulled) - count(packetRemoved) - count(packetDropped)))"
attr title "queue length"
attr unit pk
vector 298 Smarthome.smartTV.wlan[0].mac.dcf.channelAccess.pendingQueue queueBitLength:vector ETV
attr autoWarmupFilter false
attr interpolationmode sample-hold
attr recordingmode vector
attr source "warmup(atomic(constant0(packetPushEnded) + sum(packetLength(packetPushStarted)) - sum(packetLength(packetPulled)) - sum(packetLength(packetRemoved)) - sum(packetLength(packetDropped))))"
attr title "queue bit length"
attr unit b
vector 299 Smarthome.smartTV.wlan[0].mac.dcf.channelAccess.pendingQueue queueingTime:vector ETV
attr interpolationmode none
attr recordingmode vector
attr source queueingTime(packetPulled)
attr title "queueing times"
attr unit s
vector 300 Smarthome.smartTV.wlan[0].mac.dcf.channelAccess.pendingQueue incomingPacketLengths:vector ETV
attr interpolationmode none
attr recordingmode vector
attr source packetLength(packetPushStarted)
attr title "incoming packet lengths"
attr unit b
vector 301 Smarthome.smartTV.wlan[0].mac.dcf.channelAccess.pendingQueue incomingDataRate:vector ETV
attr interpolationmode linear
attr recordingmode vector
attr source throughput(packetPushStarted)
attr title "incoming datarate"
attr unit bps
vector 302 Smarthome.smartTV.wlan[0].mac.dcf.channelAccess.pendingQueue outgoingPacketLengths:vector ETV
attr interpolationmode none
attr recordingmode vector
attr source packetLength(packetPulled)
attr title "outgoing packet lengths"
attr unit b
vector 303 Smarthome.smartTV.wlan[0].mac.dcf.channelAccess.pendingQueue outgoingDataRate:vector ETV
attr interpolationmode linear
attr recordingmode vector
attr source throughput(packetPulled)
attr title "outgoing datarate"
attr unit bps
vector 304 Smarthome.smartTV.wlan[0].mac.dcf.channelAccess.pendingQueue droppedPacketLengthsQueueOverflow:vector ETV
attr interpolationmode none
attr recordingmode vector
attr source packetLength(packetDropReasonIsQueueOverflow(packetDropped))
attr title "dropped packet lengths: queue overflow"
attr unit b
vector 305 Smarthome.smartTV.wlan[0].mac.dcf.channelAccess.pendingQueue flowQueueingTime:vector ETV
attr interpolationmode none
attr recordingmode vector
attr source queueingTime(demuxFlow(packetPulled))
attr title "flow queueing times"
attr unit s
vector 306 Smarthome.smartTV.wlan[0].mac.dcf.channelAccess.pendingQueue flowIncomingDataRate:vector ETV
attr interpolationmode linear
attr recordingmode vector
attr source throughput(flowPacketLength(demuxFlow(packetPushStarted)))
attr title "flow specific incoming data rate"
attr unit bps
vector 307 Smarthome.smartTV.wlan[0].mac.dcf.channelAccess.pendingQueue flowOutgoingDataRate:vector ETV
attr interpolationmode linear
attr recordingmode vector
attr source throughput(flowPacketLength(demuxFlow(packetPulled)))
attr title "flow specific outgoing data rate"
attr unit bps
vector 308 Smarthome.smartTV.wlan[0].mac.dcf.channelAccess.inProgressFrames queueingTime:vector ETV
attr interpolationmode none
attr recordingmode vector
attr source queueingTime(packetDequeued)
attr title "queueing times"
vector 309 Smarthome.smartTV.wlan[0].mac.dcf.channelAccess.inProgressFrames queueLength:vector ETV
attr autoWarmupFilter false
attr interpolationmode sample-hold
attr recordingmode vector
attr source "warmup(count(packetEnqueued) - count(packetDequeued))"
attr title "queue length"
vector 310 Smarthome.smartTV.wlan[0].mac.dcf.channelAccess.contention backoffPeriodGenerated:vector ETV
attr interpolationmode none
attr recordingmode vector
attr title "backoff periods"
vector 311 Smarthome.smartTV.wlan[0].mac.dcf.channelAccess.contention backoffActive:vector ETV
attr autoWarmupFilter false
attr interpolationmode sample-hold
attr recordingmode vector
attr source warmup(count(backoffStarted)-count(backoffStopped))
attr title "backoff active"
[...]
61	0	0	0
61	0	0	0
62	0	0	0
62	0	0	0
62	0	0	0
62	0	0	0
62	0	0	0
73	0	0	0
73	0	0	0
75	0	0	0
75	0	0	0
76	0	0	0
76	0	0	0
76	21	0.047767792091	0
76	21	0.047767792091	0
76	36	0.047813792091	0
76	36	0.047813792091	0
76	55	0.117014878094	0
76	55	0.117014878094	0
76	65	0.117052878094	0
76	65	0.117052878094	0
76	85	0.117563942846	0
76	85	0.117563942846	0
76	97	0.117609942846	0
76	97	0.117609942846	0
76	98	0.117609942846	0
76	98	0.117609942846	0
76	116	0.1176544165	0
76	116	0.1176544165	0
76	137	0.147767792091	0
76	137	0.147767792091	0
76	152	0.147813792091	0
76	152	0.147813792091	0
76	166	0.181798771811	0
76	166	0.181798771811	0
76	182	0.181836771811	0
76	182	0.181836771811	0
76	193	0.182226880405	0
76	193	0.182226880405	0
76	205	0.182272880405	0
76	205	0.182272880405	0
76	206	0.182272880405	0
76	206	0.182272880405	0
76	230	0.182318194061	0
76	230	0.182318194061	0
76	241	0.215033217185	0
76	241	0.215033217185	0
76	248	0.215071217185	0
76	248	0.215071217185	0
76	272	0.215622536686	0
76	272	0.215622536686	0
76	284	0.215668536686	0
76	284	0.215668536686	0
76	285	0.215668536686	0
76	285	0.215668536686	0
76	301	0.215712815915	0
76	301	0.215712815915	0
78	0	0	31
85	37	0.047813792091	48
85	66	0.117052878094	32
85	153	0.147813792091	48
85	183	0.181836771811	32
85	249	0.215071217185	32
87	37	0.047813792091	48
87	66	0.117052878094	32
87	153	0.147813792091	48
87	183	0.181836771811	32
87	249	0.215071217185	32
88	37	0.047813792091	48
88	66	0.117052878094	32
88	153	0.147813792091	48
88	183	0.181836771811	32
88	249	0.215071217185	32
90	37	0.047813792091	48
90	66	0.117052878094	32
90	153	0.147813792091	48
90	183	0.181836771811	32
90	249	0.215071217185	32
91	98	0.117609942846	48
91	117	0.1176544165	14
91	206	0.182272880405	48
91	231	0.182318194061	14
91	285	0.215668536686	48
91	302	0.215712815915	14
92	98	0.117609942846	48
92	117	0.1176544165	14
92	206	0.182272880405	48
92	231	0.182318194061	14
92	285	0.215668536686	48
92	302	0.215712815915	14
95	0	0	0
95	0	0	0
97	98	0.117609942846	0
97	98	0.117609942846	4.4e-05
97	113	0.117653942846	0
97	206	0.182272880405	0
97	206	0.182272880405	4.4e-05
97	221	0.182316880405	0
97	285	0.215668536686	0
97	285	0.215668536686	4.4e-05
97	300	0.215712536686	0
101	37	0.047813792091	48
101	66	0.117052878094	32
101	98	0.117609942846	48
101	117	0.1176544165	14
101	153	0.147813792091	48
101	183	0.181836771811	32
101	206	0.182272880405	48
101	231	0.182318194061	14
101	249	0.215071217185	32
101	285	0.215668536686	48
101	302	0.215712815915	14
102	98	0.117609942846	48
102	117	0.1176544165	14
102	206	0.182272880405	48
102	231	0.182318194061	14
102	285	0.215668536686	48
102	302	0.215712815915	14
104	98	0.117609942846	48
104	117	0.1176544165	14
104	206	0.182272880405	48
104	231	0.182318194061	14
104	285	0.215668536686	48
104	302	0.215712815915	14
109	0	0	0
109	0	0	0
109	0	0	2
110	0	0	1
110	21	0.047767792091	3
110	36	0.047813792091	1
110	55	0.117014878094	3
110	65	0.117052878094	1
110	85	0.117563942846	3
110	97	0.117609942846	1
110	103	0.1176204165	3
110	116	0.1176544165	1
110	137	0.147767792091	3
110	152	0.147813792091	1
110	166	0.181798771811	3
110	182	0.181836771811	1
110	193	0.182226880405	3
110	205	0.182272880405	1
110	214	0.182284194061	3
110	230	0.182318194061	1
110	241	0.215033217185	3
110	248	0.215071217185	1
110	272	0.215622536686	3
110	284	0.215668536686	1
110	289	0.215678815915	3
110	301	0.215712815915	1
112	0	0	0
125	0	0	0
126	0	0	0
127	0	0	0
137	7	0.017013892718	1
140	0	0	0
140	0	0	0
140	0	0	0
140	0	0	0
140	0	0	0
140	49	0.117013892718	1
140	51	0.117013892718	0
141	0	0	0
141	0	0	0
141	0	0	0
141	0	0	0
141	0	0	0
141	49	0.117013892718	256
141	51	0.117013892718	0
142	51	0.117013892718	0
143	49	0.117013892718	256
144	49	0.1	0
145	51	0.117013892718	256
146	51	0.1	0
151	59	0.117051892718	3.8e-05
152	0	0	0
152	0	0	0
152	51	0.117013892718	1
152	59	0.117051892718	0
153	49	0.117013892718	7
154	0	0	0
154	0	0	0
154	49	0.117013892718	1
154	50	0.117013892718	0
155	0	0	0
155	0	0	0
155	18	0.047767280369	0
155	18	0.047767280369	0
155	27	0.047813280369	0
155	27	0.047813280369	0
155	49	0.117013892718	0
155	49	0.117013892718	2
155	50	0.117013892718	2
155	50	0.117013892718	0
155	52	0.117013892718	0
155	52	0.117013892718	0
155	60	0.117051892718	0
155	60	0.117051892718	0
155	82	0.117563431124	0
155	82	0.117563431124	0
155	90	0.117609431124	0
155	90	0.117609431124	0
155	100	0.117619431124	0
155	100	0.117619431124	0
155	110	0.117653431124	0
155	110	0.117653431124	0
155	134	0.147767280369	0
155	134	0.147767280369	0
155	143	0.147813280369	0
155	143	0.147813280369	0
155	165	0.181798362531	0
155	165	0.181798362531	0
155	179	0.181836362531	0
155	179	0.181836362531	0
155	190	0.182226368683	0
155	190	0.182226368683	0
155	199	0.182272368683	0
155	199	0.182272368683	0
155	200	0.182272368683	0
155	200	0.182272368683	0
155	228	0.182317784781	0
155	228	0.182317784781	0
155	243	0.215033506577	0
155	243	0.215033506577	0
155	255	0.215071506577	0
155	255	0.215071506577	0
155	269	0.215622024964	0
155	269	0.215622024964	0
155	277	0.215668024964	0
155	277	0.215668024964	0
155	278	0.215668024964	0
155	278	0.215668024964	0
155	305	0.215713105307	0
155	305	0.215713105307	0
157	0	0	31
158	59	0.117051892718	32
158	109	0.117653431124	14
159	109	0.117653431124	14
160	59	0.117051892718	32
161	59	0.117051892718	32
163	59	0.117051892718	32
163	109	0.117653431124	14
164	28	0.047813280369	48
164	91	0.117609431124	48
164	144	0.147813280369	48
164	180	0.181836362531	32
164	256	0.215071506577	32
165	91	0.117609431124	48
166	28	0.047813280369	48
166	144	0.147813280369	48
166	180	0.181836362531	32
166	256	0.215071506577	32
167	28	0.047813280369	48
167	144	0.147813280369	48
167	180	0.181836362531	32
167	256	0.215071506577	32
169	28	0.047813280369	48
169	91	0.117609431124	48
169	144	0.147813280369	48
169	180	0.181836362531	32
169	256	0.215071506577	32
170	200	0.182272368683	48
170	229	0.182317784781	14
170	278	0.215668024964	48
170	306	0.215713105307	14
171	200	0.182272368683	48
171	229	0.182317784781	14
171	278	0.215668024964	48
171	306	0.215713105307	14
174	0	0	0
174	0	0	0
174	51	0.117013892718	1
174	59	0.117051892718	0
175	51	0.117013892718	24000000
175	91	0.117609431124	24000000
176	200	0.182272368683	0
176	200	0.182272368683	4.4e-05
176	218	0.182316368683	0
176	278	0.215668024964	0
176	278	0.215668024964	4.4e-05
176	296	0.215712024964	0
178	51	0.117013892718	32
178	99	0.117619431124	14
180	28	0.047813280369	48
180	91	0.117609431124	48
180	144	0.147813280369	48
180	180	0.181836362531	32
180	200	0.182272368683	48
180	229	0.182317784781	14
180	256	0.215071506577	32
180	278	0.215668024964	48
180	306	0.215713105307	14
181	200	0.182272368683	48
181	229	0.182317784781	14
181	278	0.215668024964	48
181	306	0.215713105307	14
183	200	0.182272368683	48
183	229	0.182317784781	14
183	278	0.215668024964	48
183	306	0.215713105307	14
188	0	0	0
188	0	0	0
188	0	0	2
188	52	0.117013892718	3
188	60	0.117051892718	2
188	100	0.117619431124	3
188	110	0.117653431124	2
189	0	0	1
189	18	0.047767280369	3
189	27	0.047813280369	1
189	52	0.117013892718	0
189	60	0.117051892718	1
189	82	0.117563431124	3
189	90	0.117609431124	1
189	100	0.117619431124	0
189	110	0.117653431124	1
189	134	0.147767280369	3
189	143	0.147813280369	1
189	165	0.181798362531	3
189	179	0.181836362531	1
189	190	0.182226368683	3
189	199	0.182272368683	1
189	213	0.182283784781	3
189	228	0.182317784781	1
189	243	0.215033506577	3
189	255	0.215071506577	1
189	269	0.215622024964	3
189	277	0.215668024964	1
189	291	0.215679105307	3
189	305	0.215713105307	1
190	52	0.117013892718	1
190	53	0.117013892718	2
190	59	0.117051892718	1
190	60	0.117051892718	0
190	100	0.117619431124	1
190	101	0.117619431124	2
190	109	0.117653431124	1
190	110	0.117653431124	0
191	0	0	0
191	10	0.017013892718	0
204	0	0	0
205	0	0	0
206	0	0	0
218	0	0	0
218	0	0	0
218	0	0	0
218	0	0	0
218	0	0	0
219	0	0	0
219	0	0	0
219	0	0	0
219	0	0	0
219	0	0	0
230	0	0	0
230	0	0	0
232	0	0	0
232	0	0	0
233	0	0	0
233	0	0	0
233	20	0.047767640023	0
233	20	0.047767640023	0
233	33	0.047813640023	0
233	33	0.047813640023	0
233	58	0.117015584454	0
233	58	0.117015584454	0
233	74	0.117053584454	0
233	74	0.117053584454	0
233	84	0.117563790778	0
233	84	0.117563790778	0
233	95	0.117609790778	0
233	95	0.117609790778	0
233	96	0.117609790778	0
233	96	0.117609790778	0
233	122	0.11765512286	0
233	122	0.11765512286	0
233	136	0.147767640023	0
233	136	0.147767640023	0
233	149	0.147813640023	0
233	149	0.147813640023	0
233	163	0.181797685706	0
233	163	0.181797685706	0
233	173	0.181835685706	0
233	173	0.181835685706	0
233	192	0.182226728337	0
233	192	0.182226728337	0
233	203	0.182272728337	0
233	203	0.182272728337	0
233	204	0.182272728337	0
233	204	0.182272728337	0
233	224	0.182317107956	0
233	224	0.182317107956	0
233	245	0.215034324894	0
233	245	0.215034324894	0
233	261	0.215072324894	0
233	261	0.215072324894	0
233	271	0.215622384618	0
233	271	0.215622384618	0
233	282	0.215668384618	0
233	282	0.215668384618	0
233	283	0.215668384618	0
233	283	0.215668384618	0
233	309	0.215713923624	0
233	309	0.215713923624	0
235	0	0	31
242	34	0.047813640023	48
242	75	0.117053584454	32
242	150	0.147813640023	48
242	174	0.181835685706	32
242	262	0.215072324894	32
244	34	0.047813640023	48
244	75	0.117053584454	32
244	150	0.147813640023	48
244	174	0.181835685706	32
244	262	0.215072324894	32
245	34	0.047813640023	48
245	75	0.117053584454	32
245	150	0.147813640023	48
245	174	0.181835685706	32
245	262	0.215072324894	32
247	34	0.047813640023	48
247	75	0.117053584454	32
247	150	0.147813640023	48
247	174	0.181835685706	32
247	262	0.215072324894	32
248	96	0.117609790778	48
248	123	0.11765512286	14
248	204	0.182272728337	48
248	225	0.182317107956	14
248	283	0.215668384618	48
248	310	0.215713923624	14
249	96	0.117609790778	48
249	123	0.11765512286	14
249	204	0.182272728337	48
249	225	0.182317107956	14
249	283	0.215668384618	48
249	310	0.215713923624	14
252	0	0	0
252	0	0	0
254	96	0.117609790778	0
254	96	0.117609790778	4.4e-05
254	112	0.117653790778	0
254	204	0.182272728337	0
254	204	0.182272728337	4.4e-05
254	220	0.182316728337	0
254	283	0.215668384618	0
254	283	0.215668384618	4.4e-05
254	299	0.215712384618	0
258	34	0.047813640023	48
258	75	0.117053584454	32
258	96	0.117609790778	48
258	123	0.11765512286	14
258	150	0.147813640023	48
258	174	0.181835685706	32
258	204	0.182272728337	48
258	225	0.182317107956	14
258	262	0.215072324894	32
258	283	0.215668384618	48
258	310	0.215713923624	14
259	96	0.117609790778	48
259	123	0.11765512286	14
259	204	0.182272728337	48
259	225	0.182317107956	14
259	283	0.215668384618	48
259	310	0.215713923624	14
261	96	0.117609790778	48
261	123	0.11765512286	14
261	204	0.182272728337	48
261	225	0.182317107956	14
261	283	0.215668384618	48
261	310	0.215713923624	14
266	0	0	0
266	0	0	0
266	0	0	2
267	0	0	1
267	20	0.047767640023	3
267	33	0.047813640023	1
267	58	0.117015584454	3
267	74	0.117053584454	1
267	84	0.117563790778	3
267	95	0.117609790778	1
267	106	0.11762112286	3
267	122	0.11765512286	1
267	136	0.147767640023	3
267	149	0.147813640023	1
267	163	0.181797685706	3
267	173	0.181835685706	1
267	192	0.182226728337	3
267	203	0.182272728337	1
267	211	0.182283107956	3
267	224	0.182317107956	1
267	245	0.215034324894	3
267	261	0.215072324894	1
267	271	0.215622384618	3
267	282	0.215668384618	1
267	293	0.215679923624	3
267	309	0.215713923624	1
269	0	0	0
282	0	0	0
283	0	0	0
284	0	0	0
294	40	0.081796888355	1
297	0	0	0
297	0	0	0
297	0	0	0
297	0	0	0
297	0	0	0
297	157	0.181796888355	1
297	159	0.181796888355	0
298	0	0	0
298	0	0	0
298	0	0	0
298	0	0	0
298	0	0	0
298	157	0.181796888355	256
298	159	0.181796888355	0
299	159	0.181796888355	0
300	157	0.181796888355	256
301	157	0.1	0
302	159	0.181796888355	256
303	159	0.1	0
308	167	0.181834888355	3.8e-05
309	0	0	0
309	0	0	0
309	159	0.181796888355	1
309	167	0.181834888355	0
310	157	0.181796888355	24
311	0	0	0
311	0	0	0
311	157	0.181796888355	1
311	158	0.181796888355	0
312	0	0	0
312	0	0	0
312	17	0.047767222291	0
312	17	0.047767222291	0
312	24	0.047813222291	0
312	24	0.047813222291	0
312	57	0.117015366894	0
312	57	0.117015366894	0
312	71	0.117053366894	0
312	71	0.117053366894	0
312	81	0.117563373046	0
312	81	0.117563373046	0
312	88	0.117609373046	0
312	88	0.117609373046	0
312	89	0.117609373046	0
312	89	0.117609373046	0
312	120	0.1176549053	0
312	120	0.1176549053	0
312	133	0.147767222291	0
312	133	0.147767222291	0
312	140	0.147813222291	0
312	140	0.147813222291	0
312	157	0.181796888355	0
312	157	0.181796888355	2
312	158	0.181796888355	2
312	158	0.181796888355	0
312	160	0.181796888355	0
312	160	0.181796888355	0
312	168	0.181834888355	0
312	168	0.181834888355	0
312	189	0.182226310605	0
312	189	0.182226310605	0
312	196	0.182272310605	0
312	196	0.182272310605	0
312	208	0.182282310605	0
312	208	0.182282310605	0
312	217	0.182316310605	0
312	217	0.182316310605	0
312	244	0.215033667234	0
312	244	0.215033667234	0
312	258	0.215071667234	0
312	258	0.215071667234	0
312	268	0.215621966886	0
312	268	0.215621966886	0
312	275	0.215667966886	0
312	275	0.215667966886	0
312	276	0.215667966886	0
312	276	0.215667966886	0
312	307	0.215713265964	0
312	307	0.215713265964	0
314	0	0	31
315	167	0.181834888355	32
315	216	0.182316310605	14
316	216	0.182316310605	14
317	167	0.181834888355	32
318	167	0.181834888355	32
320	167	0.181834888355	32
320	216	0.182316310605	14
321	25	0.047813222291	48
321	72	0.117053366894	32
321	141	0.147813222291	48
321	197	0.182272310605	48
321	259	0.215071667234	32
322	197	0.182272310605	48
323	25	0.047813222291	48
323	72	0.117053366894	32
323	141	0.147813222291	48
323	259	0.215071667234	32
324	25	0.047813222291	48
324	72	0.117053366894	32
324	141	0.147813222291	48
324	259	0.215071667234	32
326	25	0.047813222291	48
326	72	0.117053366894	32
326	141	0.147813222291	48
326	197	0.182272310605	48
326	259	0.215071667234	32
327	89	0.117609373046	48
327	121	0.1176549053	14
327	276	0.215667966886	48
327	308	0.215713265964	14
328	89	0.117609373046	48
328	121	0.1176549053	14
328	276	0.215667966886	48
328	308	0.215713265964	14
331	0	0	0
331	0	0	0
331	159	0.181796888355	1
331	167	0.181834888355	0
332	159	0.181796888355	24000000
332	197	0.182272310605	24000000
333	89	0.117609373046	0
333	89	0.117609373046	4.4e-05
333	108	0.117653373046	0
333	276	0.215667966886	0
333	276	0.215667966886	4.4e-05
333	295	0.215711966886	0
335	159	0.181796888355	32
335	207	0.182282310605	14
337	25	0.047813222291	48
337	72	0.117053366894	32
337	89	0.117609373046	48
337	121	0.1176549053	14
337	141	0.147813222291	48
337	197	0.182272310605	48
337	259	0.215071667234	32
337	276	0.215667966886	48
337	308	0.215713265964	14
338	89	0.117609373046	48
338	121	0.1176549053	14
338	276	0.215667966886	48
338	308	0.215713265964	14
340	89	0.117609373046	48
340	121	0.1176549053	14
340	276	0.215667966886	48
340	308	0.215713265964	14
345	0	0	0
345	0	0	0
345	0	0	2
345	160	0.181796888355	3
345	168	0.181834888355	2
345	208	0.182282310605	3
345	217	0.182316310605	2
346	0	0	1
346	17	0.047767222291	3
346	24	0.047813222291	1
346	57	0.117015366894	3
346	71	0.117053366894	1
346	81	0.117563373046	3
346	88	0.117609373046	1
346	105	0.1176209053	3
346	120	0.1176549053	1
346	133	0.147767222291	3
346	140	0.147813222291	1
346	160	0.181796888355	0
346	168	0.181834888355	1
346	189	0.182226310605	3
346	196	0.182272310605	1
346	208	0.182282310605	0
346	217	0.182316310605	1
346	244	0.215033667234	3
346	258	0.215071667234	1
346	268	0.215621966886	3
346	275	0.215667966886	1
346	292	0.215679265964	3
346	307	0.215713265964	1
347	160	0.181796888355	1
347	161	0.181796888355	2
347	167	0.181834888355	1
347	168	0.181834888355	0
347	208	0.182282310605	1
347	209	0.182282310605	2
347	216	0.182316310605	1
347	217	0.182316310605	0
348	0	0	0
348	43	0.081796888355	0
361	0	0	0
362	0	0	0
363	0	0	0
368	44	0.115032456396	1
371	0	0	0
371	0	0	0
371	0	0	0
371	0	0	0
371	0	0	0
371	236	0.215032456396	1
371	238	0.215032456396	0
372	0	0	0
372	0	0	0
372	0	0	0
372	0	0	0
372	0	0	0
372	236	0.215032456396	256
372	238	0.215032456396	0
373	238	0.215032456396	0
374	236	0.215032456396	256
375	236	0.1	0
375	236	0.2	0
376	238	0.215032456396	256
377	238	0.1	0
377	238	0.2	0
382	246	0.215070456396	3.8e-05
383	0	0	0
383	0	0	0
383	238	0.215032456396	1
383	246	0.215070456396	0
384	236	0.215032456396	5
385	0	0	0
385	0	0	0
385	236	0.215032456396	1
385	237	0.215032456396	0
386	0	0	0
386	0	0	0
386	19	0.047767310531	0
386	19	0.047767310531	0
386	30	0.047813310531	0
386	30	0.047813310531	0
386	56	0.117014942899	0
386	56	0.117014942899	0
386	68	0.117052942899	0
386	68	0.117052942899	0
386	83	0.117563461286	0
386	83	0.117563461286	0
386	93	0.117609461286	0
386	93	0.117609461286	0
386	94	0.117609461286	0
386	94	0.117609461286	0
386	118	0.117654481305	0
386	118	0.117654481305	0
386	135	0.147767310531	0
386	135	0.147767310531	0
386	146	0.147813310531	0
386	146	0.147813310531	0
386	164	0.181798099193	0
386	164	0.181798099193	0
386	176	0.181836099193	0
386	176	0.181836099193	0
386	191	0.182226398845	0
386	191	0.182226398845	0
386	201	0.182272398845	0
386	201	0.182272398845	0
386	202	0.182272398845	0
386	202	0.182272398845	0
386	226	0.182317521443	0
386	226	0.182317521443	0
386	236	0.215032456396	0
386	236	0.215032456396	2
386	237	0.215032456396	2
386	237	0.215032456396	0
386	239	0.215032456396	0
386	239	0.215032456396	0
386	247	0.215070456396	0
386	247	0.215070456396	0
386	270	0.215622055126	0
386	270	0.215622055126	0
386	279	0.215668055126	0
386	279	0.215668055126	0
386	287	0.215678055126	0
386	287	0.215678055126	0
386	298	0.215712055126	0
386	298	0.215712055126	0
388	0	0	31
389	246	0.215070456396	32
389	297	0.215712055126	14
390	297	0.215712055126	14
391	246	0.215070456396	32
392	246	0.215070456396	32
394	246	0.215070456396	32
394	297	0.215712055126	14
395	31	0.047813310531	48
395	69	0.117052942899	32
395	147	0.147813310531	48
395	177	0.181836099193	32
395	280	0.215668055126	48
396	280	0.215668055126	48
397	31	0.047813310531	48
397	69	0.117052942899	32
397	147	0.147813310531	48
397	177	0.181836099193	32
398	31	0.047813310531	48
398	69	0.117052942899	32
398	147	0.147813310531	48
398	177	0.181836099193	32
400	31	0.047813310531	48
400	69	0.117052942899	32
400	147	0.147813310531	48
400	177	0.181836099193	32
400	280	0.215668055126	48
401	94	0.117609461286	48
401	119	0.117654481305	14
401	202	0.182272398845	48
401	227	0.182317521443	14
402	94	0.117609461286	48
402	119	0.117654481305	14
402	202	0.182272398845	48
402	227	0.182317521443	14
405	0	0	0
405	0	0	0
405	238	0.215032456396	1
405	246	0.215070456396	0
406	238	0.215032456396	24000000
406	280	0.215668055126	24000000
407	94	0.117609461286	0
407	94	0.117609461286	4.4e-05
407	111	0.117653461286	0
407	202	0.182272398845	0
407	202	0.182272398845	4.4e-05
407	219	0.182316398845	0
409	238	0.215032456396	32
409	286	0.215678055126	14
411	31	0.047813310531	48
411	69	0.117052942899	32
411	94	0.117609461286	48
411	119	0.117654481305	14
411	147	0.147813310531	48
411	177	0.181836099193	32
411	202	0.182272398845	48
411	227	0.182317521443	14
411	280	0.215668055126	48
412	94	0.117609461286	48
412	119	0.117654481305	14
412	202	0.182272398845	48
412	227	0.182317521443	14
414	94	0.117609461286	48
414	119	0.117654481305	14
414	202	0.182272398845	48
414	227	0.182317521443	14
419	0	0	0
419	0	0	0
419	0	0	2
419	239	0.215032456396	3
419	247	0.215070456396	2
419	287	0.215678055126	3
419	298	0.215712055126	2
420	0	0	1
420	19	0.047767310531	3
420	30	0.047813310531	1
420	56	0.117014942899	3
420	68	0.117052942899	1
420	83	0.117563461286	3
420	93	0.117609461286	1
420	104	0.117620481305	3
420	118	0.117654481305	1
420	135	0.147767310531	3
420	146	0.147813310531	1
420	164	0.181798099193	3
420	176	0.181836099193	1
420	191	0.182226398845	3
420	201	0.182272398845	1
420	212	0.182283521443	3
420	226	0.182317521443	1
420	239	0.215032456396	0
420	247	0.215070456396	1
420	270	0.215622055126	3
420	279	0.215668055126	1
420	287	0.215678055126	0
420	298	0.215712055126	1
421	239	0.215032456396	1
421	240	0.215032456396	2
421	246	0.215070456396	1
421	247	0.215070456396	0
421	287	0.215678055126	1
421	288	0.215678055126	2
421	297	0.215712055126	1
421	298	0.215712055126	0
422	0	0	0
422	47	0.115032456396	0
435	0	0	0
436	0	0	0
437	0	0	0

